C3859-P135
     RDKit          3D

 42 45  0  0  0  0  0  0  0  0999 V2000
    1.6760   -1.2561   32.1798 C   0  0  0  0  0  0  0  0  0  0  0  0
    1.1196   -2.1250   33.2830 N   0  0  0  0  0  0  0  0  0  0  0  0
    1.9735   -1.1882   34.1535 C   0  0  0  0  0  0  0  0  0  0  0  0
    1.7054    0.3269   34.1361 C   0  0  0  0  0  0  0  0  0  0  0  0
    2.6772    1.1991   33.6108 C   0  0  0  0  0  0  0  0  0  0  0  0
    2.3540    2.5226   33.3155 C   0  0  0  0  0  0  0  0  0  0  0  0
    1.0705    2.9979   33.5705 C   0  0  0  0  0  0  0  0  0  0  0  0
    0.1226    2.1635   34.1586 C   0  0  0  0  0  0  0  0  0  0  0  0
    0.4423    0.8398   34.4571 C   0  0  0  0  0  0  0  0  0  0  0  0
   -0.2962   -2.2385   33.1519 C   0  0  0  0  0  0  0  0  0  0  0  0
   -1.1814   -1.5734   33.6190 O   0  0  0  0  0  0  0  0  0  0  0  0
   -0.6177   -3.3288   32.1802 C   0  0  0  0  0  0  0  0  0  0  0  0
   -1.1437   -2.6689   31.1318 C   0  0  0  0  0  0  0  0  0  0  0  0
   -1.3501   -3.0397   29.7784 C   0  0  0  0  0  0  0  0  0  0  0  0
   -0.4444   -3.4804   28.9145 C   0  0  0  0  0  0  0  0  0  0  0  0
    0.8678   -3.8747   29.2019 C   0  0  0  0  0  0  0  0  0  0  0  0
    1.8475   -3.4708   28.3288 N   0  0  0  0  0  0  0  0  0  0  0  0
    2.9520   -4.2602   28.4839 C   0  0  0  0  0  0  0  0  0  0  0  0
    2.7241   -5.0565   29.5828 C   0  0  0  0  0  0  0  0  0  0  0  0
    1.4503   -4.7241   30.1093 C   0  0  0  0  0  0  0  0  0  0  0  0
    0.8218   -5.2614   31.4270 C   0  0  0  0  0  0  0  0  0  0  0  0
    1.2473   -6.3651   32.0109 N   0  0  0  0  0  0  0  0  0  0  0  0
    0.6211   -6.4863   33.2198 N   0  0  0  0  0  0  0  0  0  0  0  0
   -0.1070   -5.4083   33.3861 C   0  0  0  0  0  0  0  0  0  0  0  0
   -0.0650   -4.5997   32.2690 N   0  0  0  0  0  0  0  0  0  0  0  0
    1.5056   -1.8472   31.2691 H   0  0  0  0  0  0  0  0  0  0  0  0
    2.7696   -1.1388   32.1209 H   0  0  0  0  0  0  0  0  0  0  0  0
    1.0761   -0.3621   31.9617 H   0  0  0  0  0  0  0  0  0  0  0  0
    1.7057   -1.5011   35.1740 H   0  0  0  0  0  0  0  0  0  0  0  0
    3.0431   -1.4459   34.0843 H   0  0  0  0  0  0  0  0  0  0  0  0
    3.6744    0.8366   33.3699 H   0  0  0  0  0  0  0  0  0  0  0  0
    3.1000    3.1826   32.8800 H   0  0  0  0  0  0  0  0  0  0  0  0
    0.8168    4.0293   33.3390 H   0  0  0  0  0  0  0  0  0  0  0  0
   -0.8698    2.5424   34.3883 H   0  0  0  0  0  0  0  0  0  0  0  0
   -0.3195    0.2033   34.9002 H   0  0  0  0  0  0  0  0  0  0  0  0
   -1.4763   -1.6313   31.2627 H   0  0  0  0  0  0  0  0  0  0  0  0
   -2.3074   -2.7485   29.3547 H   0  0  0  0  0  0  0  0  0  0  0  0
   -0.7866   -3.5711   27.8948 H   0  0  0  0  0  0  0  0  0  0  0  0
    1.7408   -2.7354   27.6414 H   0  0  0  0  0  0  0  0  0  0  0  0
    3.8153   -4.1499   27.8405 H   0  0  0  0  0  0  0  0  0  0  0  0
    3.4478   -5.7278   30.0062 H   0  0  0  0  0  0  0  0  0  0  0  0
   -0.6899   -5.1593   34.2631 H   0  0  0  0  0  0  0  0  0  0  0  0
  1  2  1  0
  2  3  1  0
  3  4  1  0
  4  5  2  0
  5  6  1  0
  6  7  2  0
  7  8  1  0
  8  9  2  0
  2 10  1  0
 10 11  2  0
 10 12  1  0
 12 13  2  3
 13 14  1  0
 14 15  2  3
 15 16  1  0
 16 17  1  0
 17 18  1  0
 18 19  2  0
 19 20  1  0
 20 21  1  0
 21 22  2  0
 22 23  1  0
 23 24  2  0
 24 25  1  0
  9  4  1  0
 25 12  1  0
 20 16  2  0
 25 21  1  0
  1 26  1  0
  1 27  1  0
  1 28  1  0
  3 29  1  0
  3 30  1  0
  5 31  1  0
  6 32  1  0
  7 33  1  0
  8 34  1  0
  9 35  1  0
 13 36  1  0
 14 37  1  0
 15 38  1  0
 17 39  1  0
 18 40  1  0
 19 41  1  0
 24 42  1  0
M  END
>  <Energy>  (1) 
145.40198548970784

>  <compound_id>  (1) 
3859

>  <target_id>  (1) 
1

>  <reference_id>  (1) 
135

>  <inspiration_ids>  (1) 
[135, 40]

>  <energy_score>  (1) 
18.462703530396254

>  <distance_score>  (1) 
3.4651272668449864

>  <path>  (1) 
/opt/xchem-fragalysis-2/maxwin/BulkDock/SCRATCH/505735/C3859-P135/C3859-P135.minimised.mol

>  <scratch_subdir>  (1) 
/opt/xchem-fragalysis-2/maxwin/BulkDock/SCRATCH/505735/C3859-P135

>  <fragmenstein_runtime>  (1) 
7.457202911376953

>  <fragmenstein_outcome>  (1) 
too moved

>  <fragmenstein_mode>  (1) 
expansion

>  <fragmenstein_error>  (1) 


$$$$
C3859-P40
     RDKit          3D

 42 45  0  0  0  0  0  0  0  0999 V2000
    1.3215   -2.4006   32.5054 C   0  0  0  0  0  0  0  0  0  0  0  0
    0.4182   -3.5831   32.2291 N   0  0  0  0  0  0  0  0  0  0  0  0
   -0.1125   -3.2223   33.6140 C   0  0  0  0  0  0  0  0  0  0  0  0
   -0.9339   -1.9449   33.7781 C   0  0  0  0  0  0  0  0  0  0  0  0
   -0.4226   -0.8509   34.4937 C   0  0  0  0  0  0  0  0  0  0  0  0
   -1.1351    0.3445   34.5580 C   0  0  0  0  0  0  0  0  0  0  0  0
   -2.3788    0.4482   33.9405 C   0  0  0  0  0  0  0  0  0  0  0  0
   -2.9085   -0.6365   33.2489 C   0  0  0  0  0  0  0  0  0  0  0  0
   -2.1892   -1.8236   33.1701 C   0  0  0  0  0  0  0  0  0  0  0  0
   -0.1824   -3.4540   30.9390 C   0  0  0  0  0  0  0  0  0  0  0  0
   -1.2188   -2.9476   30.6066 O   0  0  0  0  0  0  0  0  0  0  0  0
    0.7438   -3.9779   29.8762 C   0  0  0  0  0  0  0  0  0  0  0  0
    1.3274   -2.9074   29.3126 C   0  0  0  0  0  0  0  0  0  0  0  0
    2.3623   -2.6061   28.3765 C   0  0  0  0  0  0  0  0  0  0  0  0
    3.1896   -3.2853   27.5927 C   0  0  0  0  0  0  0  0  0  0  0  0
    3.2569   -4.6652   27.3623 C   0  0  0  0  0  0  0  0  0  0  0  0
    4.2115   -5.0081   26.4155 N   0  0  0  0  0  0  0  0  0  0  0  0
    4.1811   -6.3421   26.1540 C   0  0  0  0  0  0  0  0  0  0  0  0
    3.2305   -6.8814   26.9735 C   0  0  0  0  0  0  0  0  0  0  0  0
    2.6497   -5.8374   27.7539 C   0  0  0  0  0  0  0  0  0  0  0  0
    1.5265   -6.1468   28.7869 C   0  0  0  0  0  0  0  0  0  0  0  0
    1.1010   -7.4026   28.8860 N   0  0  0  0  0  0  0  0  0  0  0  0
    0.1542   -7.4785   29.8534 N   0  0  0  0  0  0  0  0  0  0  0  0
    0.0321   -6.2747   30.3498 C   0  0  0  0  0  0  0  0  0  0  0  0
    0.8172   -5.3482   29.6683 N   0  0  0  0  0  0  0  0  0  0  0  0
    0.8830   -1.4369   32.2134 H   0  0  0  0  0  0  0  0  0  0  0  0
    2.1455   -2.5145   31.7863 H   0  0  0  0  0  0  0  0  0  0  0  0
    1.8919   -2.3866   33.4474 H   0  0  0  0  0  0  0  0  0  0  0  0
   -0.8437   -4.0286   33.7826 H   0  0  0  0  0  0  0  0  0  0  0  0
    0.6023   -3.4119   34.4325 H   0  0  0  0  0  0  0  0  0  0  0  0
    0.5397   -0.9160   34.9957 H   0  0  0  0  0  0  0  0  0  0  0  0
   -0.7315    1.1901   35.1094 H   0  0  0  0  0  0  0  0  0  0  0  0
   -2.9444    1.3710   34.0285 H   0  0  0  0  0  0  0  0  0  0  0  0
   -3.8860   -0.5789   32.7809 H   0  0  0  0  0  0  0  0  0  0  0  0
   -2.6212   -2.6588   32.6267 H   0  0  0  0  0  0  0  0  0  0  0  0
    0.9541   -1.9341   29.6672 H   0  0  0  0  0  0  0  0  0  0  0  0
    2.5125   -1.5205   28.3164 H   0  0  0  0  0  0  0  0  0  0  0  0
    3.8797   -2.6539   27.0265 H   0  0  0  0  0  0  0  0  0  0  0  0
    4.8306   -4.3605   25.9441 H   0  0  0  0  0  0  0  0  0  0  0  0
    4.8287   -6.7889   25.4090 H   0  0  0  0  0  0  0  0  0  0  0  0
    2.9630   -7.9260   26.9797 H   0  0  0  0  0  0  0  0  0  0  0  0
   -0.6260   -6.0066   31.1653 H   0  0  0  0  0  0  0  0  0  0  0  0
  1  2  1  0
  2  3  1  0
  3  4  1  0
  4  5  2  0
  5  6  1  0
  6  7  2  0
  7  8  1  0
  8  9  2  0
  2 10  1  0
 10 11  2  0
 10 12  1  0
 12 13  2  3
 13 14  1  0
 14 15  2  3
 15 16  1  0
 16 17  1  0
 17 18  1  0
 18 19  2  0
 19 20  1  0
 20 21  1  0
 21 22  2  0
 22 23  1  0
 23 24  2  0
 24 25  1  0
  9  4  1  0
 25 12  1  0
 20 16  2  0
 25 21  1  0
  1 26  1  0
  1 27  1  0
  1 28  1  0
  3 29  1  0
  3 30  1  0
  5 31  1  0
  6 32  1  0
  7 33  1  0
  8 34  1  0
  9 35  1  0
 13 36  1  0
 14 37  1  0
 15 38  1  0
 17 39  1  0
 18 40  1  0
 19 41  1  0
 24 42  1  0
M  END
>  <Energy>  (2) 
134.62436874601121

>  <compound_id>  (2) 
3859

>  <target_id>  (2) 
1

>  <reference_id>  (2) 
40

>  <inspiration_ids>  (2) 
[135, 40]

>  <energy_score>  (2) 
7.685086786695365

>  <distance_score>  (2) 
3.3229115135214693

>  <path>  (2) 
/opt/xchem-fragalysis-2/maxwin/BulkDock/SCRATCH/505735/C3859-P40/C3859-P40.minimised.mol

>  <scratch_subdir>  (2) 
/opt/xchem-fragalysis-2/maxwin/BulkDock/SCRATCH/505735/C3859-P40

>  <fragmenstein_runtime>  (2) 
8.905892372131348

>  <fragmenstein_outcome>  (2) 
too moved

>  <fragmenstein_mode>  (2) 
expansion

>  <fragmenstein_error>  (2) 


$$$$
C3860-P135
     RDKit          3D

 47 49  0  0  0  0  0  0  0  0999 V2000
    1.5330   -3.8217   38.4497 C   0  0  0  0  0  0  0  0  0  0  0  0
    1.7160   -4.7049   37.2121 C   0  0  0  0  0  0  0  0  0  0  0  0
    3.1514   -4.6929   36.7329 C   0  0  0  0  0  0  0  0  0  0  0  0
    3.2123   -3.4605   35.8609 C   0  0  0  0  0  0  0  0  0  0  0  0
    1.8742   -3.1965   35.4194 O   0  0  0  0  0  0  0  0  0  0  0  0
    0.9793   -4.1356   36.0010 C   0  0  0  0  0  0  0  0  0  0  0  0
    0.4939   -5.2053   35.0003 C   0  0  0  0  0  0  0  0  0  0  0  0
    0.5206   -6.3948   35.3330 O   0  0  0  0  0  0  0  0  0  0  0  0
   -0.2038   -4.7592   33.7113 C   0  0  0  0  0  0  0  0  0  0  0  0
    0.4834   -3.5570   33.0536 C   0  0  0  0  0  0  0  0  0  0  0  0
    1.6207   -3.5946   32.7384 O   0  0  0  0  0  0  0  0  0  0  0  0
   -0.5205   -2.3943   33.0144 N   0  0  0  0  0  0  0  0  0  0  0  0
   -0.5069   -1.6151   34.3094 C   0  0  0  0  0  0  0  0  0  0  0  0
   -0.3794   -0.9941   32.4698 C   0  0  0  0  0  0  0  0  0  0  0  0
   -0.2619   -1.0032   30.9570 C   0  0  0  0  0  0  0  0  0  0  0  0
    0.7228   -0.2054   30.3477 C   0  0  0  0  0  0  0  0  0  0  0  0
    0.7261   -0.0210   28.9724 C   0  0  0  0  0  0  0  0  0  0  0  0
   -0.2564   -0.6318   28.2051 C   0  0  0  0  0  0  0  0  0  0  0  0
   -1.2032   -1.4711   28.7857 C   0  0  0  0  0  0  0  0  0  0  0  0
   -1.2104   -1.6568   30.1628 C   0  0  0  0  0  0  0  0  0  0  0  0
   -0.4240   -5.8925   32.7949 N   0  0  0  0  0  0  0  0  0  0  0  0
   -1.0845   -7.0544   33.1007 C   0  0  0  0  0  0  0  0  0  0  0  0
   -1.2169   -7.7949   32.0255 N   0  0  0  0  0  0  0  0  0  0  0  0
   -0.6121   -7.1284   30.9922 N   0  0  0  0  0  0  0  0  0  0  0  0
   -0.1334   -5.9971   31.4665 C   0  0  0  0  0  0  0  0  0  0  0  0
    1.8213   -2.7820   38.2629 H   0  0  0  0  0  0  0  0  0  0  0  0
    2.1388   -4.1956   39.2818 H   0  0  0  0  0  0  0  0  0  0  0  0
    0.4855   -3.8258   38.7697 H   0  0  0  0  0  0  0  0  0  0  0  0
    1.3974   -5.7177   37.4800 H   0  0  0  0  0  0  0  0  0  0  0  0
    3.8988   -4.6833   37.5316 H   0  0  0  0  0  0  0  0  0  0  0  0
    3.3398   -5.5814   36.1174 H   0  0  0  0  0  0  0  0  0  0  0  0
    3.5586   -2.5867   36.4220 H   0  0  0  0  0  0  0  0  0  0  0  0
    3.8648   -3.5951   34.9934 H   0  0  0  0  0  0  0  0  0  0  0  0
    0.0783   -3.6226   36.3473 H   0  0  0  0  0  0  0  0  0  0  0  0
   -1.2067   -4.4563   34.0131 H   0  0  0  0  0  0  0  0  0  0  0  0
   -1.2986   -0.8613   34.4512 H   0  0  0  0  0  0  0  0  0  0  0  0
    0.4907   -1.2729   34.6191 H   0  0  0  0  0  0  0  0  0  0  0  0
   -0.7987   -2.3488   35.0645 H   0  0  0  0  0  0  0  0  0  0  0  0
    0.5509   -0.5045   32.8058 H   0  0  0  0  0  0  0  0  0  0  0  0
   -1.2725   -0.3673   32.6345 H   0  0  0  0  0  0  0  0  0  0  0  0
    1.4716    0.3116   30.9430 H   0  0  0  0  0  0  0  0  0  0  0  0
    1.4672    0.6166   28.4998 H   0  0  0  0  0  0  0  0  0  0  0  0
   -0.3019   -0.4463   27.1414 H   0  0  0  0  0  0  0  0  0  0  0  0
   -1.9516   -1.9507   28.1573 H   0  0  0  0  0  0  0  0  0  0  0  0
   -1.9839   -2.2721   30.6116 H   0  0  0  0  0  0  0  0  0  0  0  0
   -1.4439   -7.3112   34.0877 H   0  0  0  0  0  0  0  0  0  0  0  0
    0.3959   -5.2483   30.8905 H   0  0  0  0  0  0  0  0  0  0  0  0
  1  2  1  0
  2  3  1  0
  3  4  1  0
  4  5  1  0
  5  6  1  0
  6  7  1  0
  7  8  2  0
  7  9  1  0
  9 10  1  0
 10 11  2  0
 10 12  1  0
 12 13  1  0
 12 14  1  0
 14 15  1  0
 15 16  2  0
 16 17  1  0
 17 18  2  0
 18 19  1  0
 19 20  2  0
  9 21  1  0
 21 22  1  0
 22 23  2  0
 23 24  1  0
 24 25  2  0
  6  2  1  0
 20 15  1  0
 25 21  1  0
  1 26  1  0
  1 27  1  0
  1 28  1  0
  2 29  1  0
  3 30  1  0
  3 31  1  0
  4 32  1  0
  4 33  1  0
  6 34  1  0
  9 35  1  0
 13 36  1  0
 13 37  1  0
 13 38  1  0
 14 39  1  0
 14 40  1  0
 16 41  1  0
 17 42  1  0
 18 43  1  0
 19 44  1  0
 20 45  1  0
 22 46  1  0
 25 47  1  0
M  END
>  <Energy>  (3) 
111.99334774792854

>  <compound_id>  (3) 
3860

>  <target_id>  (3) 
1

>  <reference_id>  (3) 
135

>  <inspiration_ids>  (3) 
[135, 41]

>  <energy_score>  (3) 
42.60443234108058

>  <distance_score>  (3) 
1.4115472126733897

>  <path>  (3) 
/opt/xchem-fragalysis-2/maxwin/BulkDock/SCRATCH/505735/C3860-P135/C3860-P135.minimised.mol

>  <scratch_subdir>  (3) 
/opt/xchem-fragalysis-2/maxwin/BulkDock/SCRATCH/505735/C3860-P135

>  <fragmenstein_runtime>  (3) 
4.247860670089722

>  <fragmenstein_outcome>  (3) 
too moved

>  <fragmenstein_mode>  (3) 
expansion

>  <fragmenstein_error>  (3) 


$$$$
C3860-P41
     RDKit          3D

 47 49  0  0  0  0  0  0  0  0999 V2000
   -0.1539   -4.2873   37.5823 C   0  0  0  0  0  0  0  0  0  0  0  0
    0.6280   -5.1878   36.6260 C   0  0  0  0  0  0  0  0  0  0  0  0
    2.0290   -5.4693   37.1341 C   0  0  0  0  0  0  0  0  0  0  0  0
    2.8362   -4.3190   36.5777 C   0  0  0  0  0  0  0  0  0  0  0  0
    2.2196   -3.9430   35.3414 O   0  0  0  0  0  0  0  0  0  0  0  0
    0.8959   -4.4909   35.2916 C   0  0  0  0  0  0  0  0  0  0  0  0
    0.7911   -5.4931   34.1277 C   0  0  0  0  0  0  0  0  0  0  0  0
    1.6419   -6.3714   33.9512 O   0  0  0  0  0  0  0  0  0  0  0  0
   -0.4490   -5.3913   33.2675 C   0  0  0  0  0  0  0  0  0  0  0  0
   -0.6409   -4.1100   32.4433 C   0  0  0  0  0  0  0  0  0  0  0  0
   -1.6641   -3.9948   31.8155 O   0  0  0  0  0  0  0  0  0  0  0  0
    0.4556   -3.2138   32.6000 N   0  0  0  0  0  0  0  0  0  0  0  0
    1.4976   -3.4746   31.5375 C   0  0  0  0  0  0  0  0  0  0  0  0
    0.6456   -1.7730   32.1212 C   0  0  0  0  0  0  0  0  0  0  0  0
    0.3295   -1.2713   30.7175 C   0  0  0  0  0  0  0  0  0  0  0  0
    1.3223   -0.5747   30.0035 C   0  0  0  0  0  0  0  0  0  0  0  0
    1.0846   -0.1230   28.7053 C   0  0  0  0  0  0  0  0  0  0  0  0
   -0.1473   -0.3600   28.1055 C   0  0  0  0  0  0  0  0  0  0  0  0
   -1.1447   -1.0320   28.8050 C   0  0  0  0  0  0  0  0  0  0  0  0
   -0.9173   -1.4668   30.1114 C   0  0  0  0  0  0  0  0  0  0  0  0
   -0.6537   -6.5817   32.4404 N   0  0  0  0  0  0  0  0  0  0  0  0
   -1.2667   -7.7308   32.8392 C   0  0  0  0  0  0  0  0  0  0  0  0
   -1.4760   -8.5013   31.7971 N   0  0  0  0  0  0  0  0  0  0  0  0
   -0.9422   -7.8737   30.7013 N   0  0  0  0  0  0  0  0  0  0  0  0
   -0.4245   -6.7366   31.1067 C   0  0  0  0  0  0  0  0  0  0  0  0
    0.3481   -3.3278   37.7455 H   0  0  0  0  0  0  0  0  0  0  0  0
   -0.2777   -4.7744   38.5553 H   0  0  0  0  0  0  0  0  0  0  0  0
   -1.1524   -4.0805   37.1820 H   0  0  0  0  0  0  0  0  0  0  0  0
    0.0603   -6.1180   36.5047 H   0  0  0  0  0  0  0  0  0  0  0  0
    2.1088   -5.5567   38.2215 H   0  0  0  0  0  0  0  0  0  0  0  0
    2.3902   -6.4088   36.6980 H   0  0  0  0  0  0  0  0  0  0  0  0
    2.8085   -3.4516   37.2457 H   0  0  0  0  0  0  0  0  0  0  0  0
    3.8819   -4.5863   36.4010 H   0  0  0  0  0  0  0  0  0  0  0  0
    0.1952   -3.6674   35.1253 H   0  0  0  0  0  0  0  0  0  0  0  0
   -1.2817   -5.4069   33.9826 H   0  0  0  0  0  0  0  0  0  0  0  0
    1.8085   -4.5161   31.7105 H   0  0  0  0  0  0  0  0  0  0  0  0
    1.0948   -3.5300   30.5170 H   0  0  0  0  0  0  0  0  0  0  0  0
    2.4521   -2.9353   31.6369 H   0  0  0  0  0  0  0  0  0  0  0  0
    1.5905   -1.3628   32.5179 H   0  0  0  0  0  0  0  0  0  0  0  0
   -0.0993   -1.2467   32.7401 H   0  0  0  0  0  0  0  0  0  0  0  0
    2.2960   -0.3844   30.4500 H   0  0  0  0  0  0  0  0  0  0  0  0
    1.8601    0.4044   28.1563 H   0  0  0  0  0  0  0  0  0  0  0  0
   -0.3405   -0.0305   27.0885 H   0  0  0  0  0  0  0  0  0  0  0  0
   -2.0988   -1.2267   28.3196 H   0  0  0  0  0  0  0  0  0  0  0  0
   -1.7267   -1.9672   30.6333 H   0  0  0  0  0  0  0  0  0  0  0  0
   -1.5553   -7.9506   33.8570 H   0  0  0  0  0  0  0  0  0  0  0  0
    0.0636   -6.0099   30.4727 H   0  0  0  0  0  0  0  0  0  0  0  0
  1  2  1  0
  2  3  1  0
  3  4  1  0
  4  5  1  0
  5  6  1  0
  6  7  1  0
  7  8  2  0
  7  9  1  0
  9 10  1  0
 10 11  2  0
 10 12  1  0
 12 13  1  0
 12 14  1  0
 14 15  1  0
 15 16  2  0
 16 17  1  0
 17 18  2  0
 18 19  1  0
 19 20  2  0
  9 21  1  0
 21 22  1  0
 22 23  2  0
 23 24  1  0
 24 25  2  0
  6  2  1  0
 20 15  1  0
 25 21  1  0
  1 26  1  0
  1 27  1  0
  1 28  1  0
  2 29  1  0
  3 30  1  0
  3 31  1  0
  4 32  1  0
  4 33  1  0
  6 34  1  0
  9 35  1  0
 13 36  1  0
 13 37  1  0
 13 38  1  0
 14 39  1  0
 14 40  1  0
 16 41  1  0
 17 42  1  0
 18 43  1  0
 19 44  1  0
 20 45  1  0
 22 46  1  0
 25 47  1  0
M  END
>  <Energy>  (4) 
105.21180055720151

>  <compound_id>  (4) 
3860

>  <target_id>  (4) 
1

>  <reference_id>  (4) 
41

>  <inspiration_ids>  (4) 
[135, 41]

>  <energy_score>  (4) 
43.62790447245209

>  <distance_score>  (4) 
1.2599242450391053

>  <path>  (4) 
/opt/xchem-fragalysis-2/maxwin/BulkDock/SCRATCH/505735/C3860-P41/C3860-P41.minimised.mol

>  <scratch_subdir>  (4) 
/opt/xchem-fragalysis-2/maxwin/BulkDock/SCRATCH/505735/C3860-P41

>  <fragmenstein_runtime>  (4) 
4.180581092834473

>  <fragmenstein_outcome>  (4) 
too moved

>  <fragmenstein_mode>  (4) 
expansion

>  <fragmenstein_error>  (4) 


$$$$
C2224-P135
     RDKit          3D

 50 52  0  0  0  0  0  0  0  0999 V2000
    0.8797   -3.1387   35.0683 C   0  0  0  0  0  0  0  0  0  0  0  0
    0.3640   -3.3834   33.6723 N   0  0  0  0  0  0  0  0  0  0  0  0
    0.8511   -1.9523   33.5198 C   0  0  0  0  0  0  0  0  0  0  0  0
    0.4280   -1.4120   32.1436 C   0  0  0  0  0  0  0  0  0  0  0  0
    1.2774   -0.5188   31.4636 C   0  0  0  0  0  0  0  0  0  0  0  0
    0.9143    0.0113   30.2277 C   0  0  0  0  0  0  0  0  0  0  0  0
   -0.3199   -0.3308   29.6815 C   0  0  0  0  0  0  0  0  0  0  0  0
   -0.6681    0.0495   28.0023 S   0  0  0  0  0  0  0  0  0  0  0  0
   -1.7332   -0.8444   27.6128 O   0  0  0  0  0  0  0  0  0  0  0  0
    0.6180    0.0857   27.3440 O   0  0  0  0  0  0  0  0  0  0  0  0
   -1.3223    1.6606   27.9661 N   0  0  0  0  0  0  0  0  0  0  0  0
   -2.2401    1.7553   26.7810 C   0  0  0  0  0  0  0  0  0  0  0  0
   -2.6470    3.1450   26.3774 C   0  0  0  0  0  0  0  0  0  0  0  0
   -1.4263    4.0212   26.2536 C   0  0  0  0  0  0  0  0  0  0  0  0
   -1.7766    5.3131   25.7885 O   0  0  0  0  0  0  0  0  0  0  0  0
   -0.7701    4.0962   27.6211 C   0  0  0  0  0  0  0  0  0  0  0  0
   -0.2658    2.7204   28.0315 C   0  0  0  0  0  0  0  0  0  0  0  0
   -1.1784   -1.2069   30.3476 C   0  0  0  0  0  0  0  0  0  0  0  0
   -0.8163   -1.7305   31.5825 C   0  0  0  0  0  0  0  0  0  0  0  0
    0.9147   -4.6845   33.1013 C   0  0  0  0  0  0  0  0  0  0  0  0
    1.8911   -4.8886   32.4758 O   0  0  0  0  0  0  0  0  0  0  0  0
   -0.0546   -5.7836   33.5171 C   0  0  0  0  0  0  0  0  0  0  0  0
   -0.4776   -6.6811   32.4609 N   0  0  0  0  0  0  0  0  0  0  0  0
   -1.2464   -7.7887   32.6624 C   0  0  0  0  0  0  0  0  0  0  0  0
   -1.5277   -8.3452   31.5086 N   0  0  0  0  0  0  0  0  0  0  0  0
   -0.9214   -7.5993   30.5312 N   0  0  0  0  0  0  0  0  0  0  0  0
   -0.2892   -6.6058   31.1179 C   0  0  0  0  0  0  0  0  0  0  0  0
    1.9714   -3.0190   35.1537 H   0  0  0  0  0  0  0  0  0  0  0  0
    0.2853   -2.4296   35.6641 H   0  0  0  0  0  0  0  0  0  0  0  0
    0.7082   -4.0902   35.5949 H   0  0  0  0  0  0  0  0  0  0  0  0
    1.9527   -1.9145   33.5082 H   0  0  0  0  0  0  0  0  0  0  0  0
    0.3930   -1.2156   34.2008 H   0  0  0  0  0  0  0  0  0  0  0  0
    2.2484   -0.2557   31.8796 H   0  0  0  0  0  0  0  0  0  0  0  0
    1.6133    0.6387   29.6799 H   0  0  0  0  0  0  0  0  0  0  0  0
   -3.1540    1.2141   27.0043 H   0  0  0  0  0  0  0  0  0  0  0  0
   -1.7818    1.2812   25.9193 H   0  0  0  0  0  0  0  0  0  0  0  0
   -3.3329    3.5658   27.1149 H   0  0  0  0  0  0  0  0  0  0  0  0
   -3.2033    3.1242   25.4327 H   0  0  0  0  0  0  0  0  0  0  0  0
   -0.7253    3.6044   25.5209 H   0  0  0  0  0  0  0  0  0  0  0  0
   -2.6951    5.5280   26.0554 H   0  0  0  0  0  0  0  0  0  0  0  0
    0.0590    4.8135   27.6066 H   0  0  0  0  0  0  0  0  0  0  0  0
   -1.4875    4.4784   28.3530 H   0  0  0  0  0  0  0  0  0  0  0  0
    0.1138    2.7706   29.0573 H   0  0  0  0  0  0  0  0  0  0  0  0
    0.5714    2.4688   27.3717 H   0  0  0  0  0  0  0  0  0  0  0  0
   -2.1063   -1.5291   29.8861 H   0  0  0  0  0  0  0  0  0  0  0  0
   -1.4965   -2.4094   32.0910 H   0  0  0  0  0  0  0  0  0  0  0  0
   -0.9665   -5.3609   33.9472 H   0  0  0  0  0  0  0  0  0  0  0  0
    0.4395   -6.3924   34.2830 H   0  0  0  0  0  0  0  0  0  0  0  0
   -1.5742   -8.1377   33.6315 H   0  0  0  0  0  0  0  0  0  0  0  0
    0.2836   -5.8386   30.6128 H   0  0  0  0  0  0  0  0  0  0  0  0
  1  2  1  0
  2  3  1  0
  3  4  1  0
  4  5  2  0
  5  6  1  0
  6  7  2  0
  7  8  1  0
  8  9  2  0
  8 10  2  0
  8 11  1  0
 11 12  1  0
 12 13  1  0
 13 14  1  0
 14 15  1  0
 14 16  1  0
 16 17  1  0
  7 18  1  0
 18 19  2  0
  2 20  1  0
 20 21  2  0
 20 22  1  0
 22 23  1  0
 23 24  1  0
 24 25  2  0
 25 26  1  0
 26 27  2  0
 19  4  1  0
 27 23  1  0
 17 11  1  0
  1 28  1  0
  1 29  1  0
  1 30  1  0
  3 31  1  0
  3 32  1  0
  5 33  1  0
  6 34  1  0
 12 35  1  0
 12 36  1  0
 13 37  1  0
 13 38  1  0
 14 39  1  0
 15 40  1  0
 16 41  1  0
 16 42  1  0
 17 43  1  0
 17 44  1  0
 18 45  1  0
 19 46  1  0
 22 47  1  0
 22 48  1  0
 24 49  1  0
 27 50  1  0
M  END
>  <Energy>  (5) 
61.71755826372987

>  <compound_id>  (5) 
2224

>  <target_id>  (5) 
1

>  <reference_id>  (5) 
135

>  <inspiration_ids>  (5) 
[135, 44]

>  <energy_score>  (5) 
42.25839775284885

>  <distance_score>  (5) 
1.397199559308414

>  <path>  (5) 
/opt/xchem-fragalysis-2/maxwin/BulkDock/SCRATCH/505735/C2224-P135/C2224-P135.minimised.mol

>  <scratch_subdir>  (5) 
/opt/xchem-fragalysis-2/maxwin/BulkDock/SCRATCH/505735/C2224-P135

>  <fragmenstein_runtime>  (5) 
6.370806932449341

>  <fragmenstein_outcome>  (5) 
too moved

>  <fragmenstein_mode>  (5) 
expansion

>  <fragmenstein_error>  (5) 


$$$$
C2224-P44
     RDKit          3D

 50 52  0  0  0  0  0  0  0  0999 V2000
   -0.6622   -2.9448   34.0610 C   0  0  0  0  0  0  0  0  0  0  0  0
   -0.9215   -3.7948   32.8543 N   0  0  0  0  0  0  0  0  0  0  0  0
   -1.5665   -2.4923   32.3963 C   0  0  0  0  0  0  0  0  0  0  0  0
   -0.8143   -1.6895   31.3436 C   0  0  0  0  0  0  0  0  0  0  0  0
   -0.1517   -0.4990   31.6835 C   0  0  0  0  0  0  0  0  0  0  0  0
    0.4710    0.2744   30.7062 C   0  0  0  0  0  0  0  0  0  0  0  0
    0.4231   -0.1374   29.3788 C   0  0  0  0  0  0  0  0  0  0  0  0
    1.1780    0.8737   28.1361 S   0  0  0  0  0  0  0  0  0  0  0  0
    1.6076   -0.0124   27.0828 O   0  0  0  0  0  0  0  0  0  0  0  0
    2.1297    1.7461   28.7946 O   0  0  0  0  0  0  0  0  0  0  0  0
   -0.1255    1.8201   27.5798 N   0  0  0  0  0  0  0  0  0  0  0  0
   -1.3939    1.1361   27.2407 C   0  0  0  0  0  0  0  0  0  0  0  0
   -2.2544    1.9897   26.3195 C   0  0  0  0  0  0  0  0  0  0  0  0
   -1.6880    3.3836   26.1122 C   0  0  0  0  0  0  0  0  0  0  0  0
   -2.6387    4.1935   25.4397 O   0  0  0  0  0  0  0  0  0  0  0  0
   -1.3489    3.9828   27.4680 C   0  0  0  0  0  0  0  0  0  0  0  0
   -0.2765    3.1648   28.1828 C   0  0  0  0  0  0  0  0  0  0  0  0
   -0.1911   -1.3413   29.0218 C   0  0  0  0  0  0  0  0  0  0  0  0
   -0.8169   -2.1079   30.0023 C   0  0  0  0  0  0  0  0  0  0  0  0
    0.3492   -4.4887   32.3866 C   0  0  0  0  0  0  0  0  0  0  0  0
    1.1694   -4.1387   31.6183 O   0  0  0  0  0  0  0  0  0  0  0  0
    0.3687   -5.8679   33.0316 C   0  0  0  0  0  0  0  0  0  0  0  0
   -0.3455   -6.8322   32.2314 N   0  0  0  0  0  0  0  0  0  0  0  0
   -1.2487   -7.7448   32.6717 C   0  0  0  0  0  0  0  0  0  0  0  0
   -1.7172   -8.4175   31.6452 N   0  0  0  0  0  0  0  0  0  0  0  0
   -1.0912   -7.9514   30.5162 N   0  0  0  0  0  0  0  0  0  0  0  0
   -0.2528   -7.0127   30.8875 C   0  0  0  0  0  0  0  0  0  0  0  0
    0.0347   -2.1085   33.9125 H   0  0  0  0  0  0  0  0  0  0  0  0
   -1.5570   -2.7169   34.6604 H   0  0  0  0  0  0  0  0  0  0  0  0
   -0.0905   -3.5957   34.7403 H   0  0  0  0  0  0  0  0  0  0  0  0
   -2.1387   -1.8376   33.0820 H   0  0  0  0  0  0  0  0  0  0  0  0
   -2.4205   -2.9017   31.8296 H   0  0  0  0  0  0  0  0  0  0  0  0
   -0.1271   -0.1516   32.7133 H   0  0  0  0  0  0  0  0  0  0  0  0
    0.9782    1.1953   30.9852 H   0  0  0  0  0  0  0  0  0  0  0  0
   -1.9510    0.9331   28.1626 H   0  0  0  0  0  0  0  0  0  0  0  0
   -1.1978    0.1802   26.7493 H   0  0  0  0  0  0  0  0  0  0  0  0
   -3.2785    2.0425   26.7122 H   0  0  0  0  0  0  0  0  0  0  0  0
   -2.3615    1.5061   25.3490 H   0  0  0  0  0  0  0  0  0  0  0  0
   -0.7926    3.3459   25.4800 H   0  0  0  0  0  0  0  0  0  0  0  0
   -2.9864    3.7051   24.6735 H   0  0  0  0  0  0  0  0  0  0  0  0
   -1.0309    5.0274   27.3662 H   0  0  0  0  0  0  0  0  0  0  0  0
   -2.2561    4.0214   28.0840 H   0  0  0  0  0  0  0  0  0  0  0  0
   -0.4900    3.0903   29.2514 H   0  0  0  0  0  0  0  0  0  0  0  0
    0.6727    3.7020   28.0703 H   0  0  0  0  0  0  0  0  0  0  0  0
   -0.1984   -1.6815   27.9872 H   0  0  0  0  0  0  0  0  0  0  0  0
   -1.3054   -3.0347   29.7039 H   0  0  0  0  0  0  0  0  0  0  0  0
   -0.0735   -5.8436   34.0324 H   0  0  0  0  0  0  0  0  0  0  0  0
    1.4046   -6.2109   33.1249 H   0  0  0  0  0  0  0  0  0  0  0  0
   -1.5342   -7.8825   33.7061 H   0  0  0  0  0  0  0  0  0  0  0  0
    0.4060   -6.4470   30.2432 H   0  0  0  0  0  0  0  0  0  0  0  0
  1  2  1  0
  2  3  1  0
  3  4  1  0
  4  5  2  0
  5  6  1  0
  6  7  2  0
  7  8  1  0
  8  9  2  0
  8 10  2  0
  8 11  1  0
 11 12  1  0
 12 13  1  0
 13 14  1  0
 14 15  1  0
 14 16  1  0
 16 17  1  0
  7 18  1  0
 18 19  2  0
  2 20  1  0
 20 21  2  0
 20 22  1  0
 22 23  1  0
 23 24  1  0
 24 25  2  0
 25 26  1  0
 26 27  2  0
 19  4  1  0
 27 23  1  0
 17 11  1  0
  1 28  1  0
  1 29  1  0
  1 30  1  0
  3 31  1  0
  3 32  1  0
  5 33  1  0
  6 34  1  0
 12 35  1  0
 12 36  1  0
 13 37  1  0
 13 38  1  0
 14 39  1  0
 15 40  1  0
 16 41  1  0
 16 42  1  0
 17 43  1  0
 17 44  1  0
 18 45  1  0
 19 46  1  0
 22 47  1  0
 22 48  1  0
 24 49  1  0
 27 50  1  0
M  END
>  <Energy>  (6) 
68.468975967701084

>  <compound_id>  (6) 
2224

>  <target_id>  (6) 
1

>  <reference_id>  (6) 
44

>  <inspiration_ids>  (6) 
[135, 44]

>  <energy_score>  (6) 
49.00981545681617

>  <distance_score>  (6) 
1.1211137365283106

>  <path>  (6) 
/opt/xchem-fragalysis-2/maxwin/BulkDock/SCRATCH/505735/C2224-P44/C2224-P44.minimised.mol

>  <scratch_subdir>  (6) 
/opt/xchem-fragalysis-2/maxwin/BulkDock/SCRATCH/505735/C2224-P44

>  <fragmenstein_runtime>  (6) 
4.676016330718994

>  <fragmenstein_outcome>  (6) 
too moved

>  <fragmenstein_mode>  (6) 
expansion

>  <fragmenstein_error>  (6) 


$$$$
C3861-P135
     RDKit          3D

 61 64  0  0  0  0  0  0  0  0999 V2000
    6.3932    2.9674   28.1994 C   0  0  0  0  0  0  0  0  0  0  0  0
    5.3282    3.7815   27.5303 C   0  0  0  0  0  0  0  0  0  0  0  0
    5.6692    4.9464   26.8510 C   0  0  0  0  0  0  0  0  0  0  0  0
    4.6589    5.6863   26.2532 C   0  0  0  0  0  0  0  0  0  0  0  0
    3.3447    5.2461   26.3589 C   0  0  0  0  0  0  0  0  0  0  0  0
    3.0844    4.0713   27.0521 C   0  0  0  0  0  0  0  0  0  0  0  0
    1.7955    3.6154   27.2272 N   0  0  0  0  0  0  0  0  0  0  0  0
    0.5330    4.1819   26.8368 C   0  0  0  0  0  0  0  0  0  0  0  0
    0.2801    5.1587   26.1886 O   0  0  0  0  0  0  0  0  0  0  0  0
   -0.5997    3.3577   27.5061 C   0  0  0  0  0  0  0  0  0  0  0  0
   -1.9933    3.8477   27.0825 C   0  0  0  0  0  0  0  0  0  0  0  0
   -2.6676    2.6519   26.4275 C   0  0  0  0  0  0  0  0  0  0  0  0
   -1.9524    1.4790   27.0564 C   0  0  0  0  0  0  0  0  0  0  0  0
   -0.5677    1.9492   27.0559 N   0  0  0  0  0  0  0  0  0  0  0  0
    0.3634    1.1059   27.7254 N   0  0  0  0  0  0  0  0  0  0  0  0
    0.0922    0.5384   29.0028 C   0  0  0  0  0  0  0  0  0  0  0  0
    0.7663    1.0280   30.1210 C   0  0  0  0  0  0  0  0  0  0  0  0
    0.6564    0.3771   31.3536 C   0  0  0  0  0  0  0  0  0  0  0  0
   -0.1420   -0.7724   31.4990 C   0  0  0  0  0  0  0  0  0  0  0  0
   -0.1265   -1.5091   32.8423 C   0  0  0  0  0  0  0  0  0  0  0  0
   -0.0342   -3.0276   33.0385 N   0  0  0  0  0  0  0  0  0  0  0  0
    1.2371   -2.8353   32.2495 C   0  0  0  0  0  0  0  0  0  0  0  0
   -0.8087   -4.0909   32.4745 C   0  0  0  0  0  0  0  0  0  0  0  0
   -1.6701   -4.0708   31.6339 O   0  0  0  0  0  0  0  0  0  0  0  0
   -0.3840   -5.4235   33.1029 C   0  0  0  0  0  0  0  0  0  0  0  0
   -0.5891   -6.5436   32.2031 N   0  0  0  0  0  0  0  0  0  0  0  0
   -1.2300   -7.7099   32.4808 C   0  0  0  0  0  0  0  0  0  0  0  0
   -1.2695   -8.4534   31.3983 N   0  0  0  0  0  0  0  0  0  0  0  0
   -0.6108   -7.7777   30.4010 N   0  0  0  0  0  0  0  0  0  0  0  0
   -0.1936   -6.6386   30.9033 C   0  0  0  0  0  0  0  0  0  0  0  0
   -0.8914   -1.2002   30.3968 C   0  0  0  0  0  0  0  0  0  0  0  0
   -0.7468   -0.5733   29.1536 C   0  0  0  0  0  0  0  0  0  0  0  0
    4.0539    3.3321   27.6284 N   0  0  0  0  0  0  0  0  0  0  0  0
    5.9705    2.0580   28.6386 H   0  0  0  0  0  0  0  0  0  0  0  0
    7.1573    2.6701   27.4745 H   0  0  0  0  0  0  0  0  0  0  0  0
    6.8635    3.5468   28.9998 H   0  0  0  0  0  0  0  0  0  0  0  0
    6.7011    5.2766   26.7913 H   0  0  0  0  0  0  0  0  0  0  0  0
    4.8860    6.6044   25.7193 H   0  0  0  0  0  0  0  0  0  0  0  0
    2.5506    5.8295   25.9063 H   0  0  0  0  0  0  0  0  0  0  0  0
    1.6293    2.7336   27.7055 H   0  0  0  0  0  0  0  0  0  0  0  0
   -0.5021    3.4529   28.5950 H   0  0  0  0  0  0  0  0  0  0  0  0
   -2.5487    4.1486   27.9749 H   0  0  0  0  0  0  0  0  0  0  0  0
   -1.9966    4.6975   26.3958 H   0  0  0  0  0  0  0  0  0  0  0  0
   -2.4975    2.6715   25.3438 H   0  0  0  0  0  0  0  0  0  0  0  0
   -3.7468    2.6313   26.6020 H   0  0  0  0  0  0  0  0  0  0  0  0
   -2.0895    0.5611   26.4801 H   0  0  0  0  0  0  0  0  0  0  0  0
   -2.3284    1.3406   28.0727 H   0  0  0  0  0  0  0  0  0  0  0  0
    0.5769    0.2949   27.1268 H   0  0  0  0  0  0  0  0  0  0  0  0
    1.4271    1.8863   30.0242 H   0  0  0  0  0  0  0  0  0  0  0  0
    1.2355    0.7599   32.1921 H   0  0  0  0  0  0  0  0  0  0  0  0
    0.5330   -1.0168   33.5775 H   0  0  0  0  0  0  0  0  0  0  0  0
   -1.1303   -1.3003   33.2453 H   0  0  0  0  0  0  0  0  0  0  0  0
    1.7787   -3.7856   32.3749 H   0  0  0  0  0  0  0  0  0  0  0  0
    1.0936   -2.8118   31.1615 H   0  0  0  0  0  0  0  0  0  0  0  0
    1.9681   -2.1124   32.6447 H   0  0  0  0  0  0  0  0  0  0  0  0
   -0.9764   -5.5930   34.0065 H   0  0  0  0  0  0  0  0  0  0  0  0
    0.6758   -5.4324   33.3729 H   0  0  0  0  0  0  0  0  0  0  0  0
   -1.6480   -7.9720   33.4428 H   0  0  0  0  0  0  0  0  0  0  0  0
    0.3482   -5.8702   30.3694 H   0  0  0  0  0  0  0  0  0  0  0  0
   -1.5550   -2.0572   30.4611 H   0  0  0  0  0  0  0  0  0  0  0  0
   -1.2737   -0.9875   28.2942 H   0  0  0  0  0  0  0  0  0  0  0  0
  1  2  1  0
  2  3  2  0
  3  4  1  0
  4  5  2  0
  5  6  1  0
  6  7  1  0
  7  8  1  0
  8  9  2  0
  8 10  1  0
 10 11  1  0
 11 12  1  0
 12 13  1  0
 13 14  1  0
 14 15  1  0
 15 16  1  0
 16 17  2  0
 17 18  1  0
 18 19  2  0
 19 20  1  0
 20 21  1  0
 21 22  1  0
 21 23  1  0
 23 24  2  0
 23 25  1  0
 25 26  1  0
 26 27  1  0
 27 28  2  0
 28 29  1  0
 29 30  2  0
 19 31  1  0
 31 32  2  0
  6 33  2  0
 33  2  1  0
 14 10  1  0
 32 16  1  0
 30 26  1  0
  1 34  1  0
  1 35  1  0
  1 36  1  0
  3 37  1  0
  4 38  1  0
  5 39  1  0
  7 40  1  0
 10 41  1  0
 11 42  1  0
 11 43  1  0
 12 44  1  0
 12 45  1  0
 13 46  1  0
 13 47  1  0
 15 48  1  0
 17 49  1  0
 18 50  1  0
 20 51  1  0
 20 52  1  0
 22 53  1  0
 22 54  1  0
 22 55  1  0
 25 56  1  0
 25 57  1  0
 27 58  1  0
 30 59  1  0
 31 60  1  0
 32 61  1  0
M  END
>  <Energy>  (7) 
130.72319067535921

>  <compound_id>  (7) 
3861

>  <target_id>  (7) 
1

>  <reference_id>  (7) 
135

>  <inspiration_ids>  (7) 
[135, 53]

>  <energy_score>  (7) 
8.078609186422568

>  <distance_score>  (7) 
1.0281751588050392

>  <path>  (7) 
/opt/xchem-fragalysis-2/maxwin/BulkDock/SCRATCH/505735/C3861-P135/C3861-P135.minimised.mol

>  <scratch_subdir>  (7) 
/opt/xchem-fragalysis-2/maxwin/BulkDock/SCRATCH/505735/C3861-P135

>  <fragmenstein_runtime>  (7) 
11.666789531707764

>  <fragmenstein_outcome>  (7) 
too moved

>  <fragmenstein_mode>  (7) 
expansion

>  <fragmenstein_error>  (7) 


$$$$
C3861-P53
     RDKit          3D

 61 64  0  0  0  0  0  0  0  0999 V2000
    6.2548    3.1218   28.1426 C   0  0  0  0  0  0  0  0  0  0  0  0
    5.1314    3.7709   27.3937 C   0  0  0  0  0  0  0  0  0  0  0  0
    5.4052    4.7614   26.4551 C   0  0  0  0  0  0  0  0  0  0  0  0
    4.3459    5.3337   25.7638 C   0  0  0  0  0  0  0  0  0  0  0  0
    3.0521    4.8998   26.0271 C   0  0  0  0  0  0  0  0  0  0  0  0
    2.8623    3.9134   26.9844 C   0  0  0  0  0  0  0  0  0  0  0  0
    1.6068    3.4476   27.3045 N   0  0  0  0  0  0  0  0  0  0  0  0
    0.3126    3.7612   26.7532 C   0  0  0  0  0  0  0  0  0  0  0  0
   -0.0114    4.5670   25.9269 O   0  0  0  0  0  0  0  0  0  0  0  0
   -0.7404    2.8598   27.4598 C   0  0  0  0  0  0  0  0  0  0  0  0
   -2.1714    3.3199   27.1642 C   0  0  0  0  0  0  0  0  0  0  0  0
   -2.7792    2.2266   26.3018 C   0  0  0  0  0  0  0  0  0  0  0  0
   -2.0404    0.9914   26.7706 C   0  0  0  0  0  0  0  0  0  0  0  0
   -0.6807    1.5063   26.8776 N   0  0  0  0  0  0  0  0  0  0  0  0
    0.2904    0.6307   27.3829 N   0  0  0  0  0  0  0  0  0  0  0  0
    0.3045    0.0789   28.6803 C   0  0  0  0  0  0  0  0  0  0  0  0
    1.4191    0.2930   29.5005 C   0  0  0  0  0  0  0  0  0  0  0  0
    1.4944   -0.2717   30.7780 C   0  0  0  0  0  0  0  0  0  0  0  0
    0.4563   -1.0782   31.2704 C   0  0  0  0  0  0  0  0  0  0  0  0
    0.6201   -1.7615   32.6264 C   0  0  0  0  0  0  0  0  0  0  0  0
    0.4672   -3.2665   32.8682 N   0  0  0  0  0  0  0  0  0  0  0  0
    1.6257   -3.3208   31.9049 C   0  0  0  0  0  0  0  0  0  0  0  0
   -0.5578   -4.1798   32.4586 C   0  0  0  0  0  0  0  0  0  0  0  0
   -1.5127   -4.0154   31.7442 O   0  0  0  0  0  0  0  0  0  0  0  0
   -0.2880   -5.5524   33.0768 C   0  0  0  0  0  0  0  0  0  0  0  0
   -0.5577   -6.6336   32.1503 N   0  0  0  0  0  0  0  0  0  0  0  0
   -1.2362   -7.7798   32.4185 C   0  0  0  0  0  0  0  0  0  0  0  0
   -1.3107   -8.5110   31.3298 N   0  0  0  0  0  0  0  0  0  0  0  0
   -0.6446   -7.8418   30.3337 N   0  0  0  0  0  0  0  0  0  0  0  0
   -0.1877   -6.7211   30.8443 C   0  0  0  0  0  0  0  0  0  0  0  0
   -0.6791   -1.2503   30.4755 C   0  0  0  0  0  0  0  0  0  0  0  0
   -0.7408   -0.6941   29.1917 C   0  0  0  0  0  0  0  0  0  0  0  0
    3.8751    3.3456   27.6708 N   0  0  0  0  0  0  0  0  0  0  0  0
    5.8740    2.3726   28.8442 H   0  0  0  0  0  0  0  0  0  0  0  0
    6.9340    2.6210   27.4455 H   0  0  0  0  0  0  0  0  0  0  0  0
    6.8124    3.8705   28.7137 H   0  0  0  0  0  0  0  0  0  0  0  0
    6.4238    5.0818   26.2621 H   0  0  0  0  0  0  0  0  0  0  0  0
    4.5204    6.1101   25.0245 H   0  0  0  0  0  0  0  0  0  0  0  0
    2.2200    5.3426   25.4907 H   0  0  0  0  0  0  0  0  0  0  0  0
    1.4948    2.7681   28.0416 H   0  0  0  0  0  0  0  0  0  0  0  0
   -0.5799    2.8747   28.5451 H   0  0  0  0  0  0  0  0  0  0  0  0
   -2.7262    3.3925   28.1037 H   0  0  0  0  0  0  0  0  0  0  0  0
   -2.2345    4.2848   26.6615 H   0  0  0  0  0  0  0  0  0  0  0  0
   -2.5690    2.4279   25.2448 H   0  0  0  0  0  0  0  0  0  0  0  0
   -3.8625    2.1480   26.4326 H   0  0  0  0  0  0  0  0  0  0  0  0
   -2.1290    0.1622   26.0658 H   0  0  0  0  0  0  0  0  0  0  0  0
   -2.4629    0.6992   27.7338 H   0  0  0  0  0  0  0  0  0  0  0  0
    1.2285    0.7744   27.0051 H   0  0  0  0  0  0  0  0  0  0  0  0
    2.2597    0.8836   29.1424 H   0  0  0  0  0  0  0  0  0  0  0  0
    2.3898   -0.0953   31.3708 H   0  0  0  0  0  0  0  0  0  0  0  0
    1.4832   -1.3740   33.1946 H   0  0  0  0  0  0  0  0  0  0  0  0
   -0.2289   -1.3644   33.2060 H   0  0  0  0  0  0  0  0  0  0  0  0
    1.9868   -4.3588   31.9748 H   0  0  0  0  0  0  0  0  0  0  0  0
    1.3339   -3.2622   30.8475 H   0  0  0  0  0  0  0  0  0  0  0  0
    2.5290   -2.7535   32.1775 H   0  0  0  0  0  0  0  0  0  0  0  0
   -0.9366   -5.6724   33.9498 H   0  0  0  0  0  0  0  0  0  0  0  0
    0.7515   -5.6660   33.3992 H   0  0  0  0  0  0  0  0  0  0  0  0
   -1.6538   -8.0312   33.3828 H   0  0  0  0  0  0  0  0  0  0  0  0
    0.3711   -5.9637   30.3127 H   0  0  0  0  0  0  0  0  0  0  0  0
   -1.5168   -1.8535   30.8132 H   0  0  0  0  0  0  0  0  0  0  0  0
   -1.5909   -0.9554   28.5675 H   0  0  0  0  0  0  0  0  0  0  0  0
  1  2  1  0
  2  3  2  0
  3  4  1  0
  4  5  2  0
  5  6  1  0
  6  7  1  0
  7  8  1  0
  8  9  2  0
  8 10  1  0
 10 11  1  0
 11 12  1  0
 12 13  1  0
 13 14  1  0
 14 15  1  0
 15 16  1  0
 16 17  2  0
 17 18  1  0
 18 19  2  0
 19 20  1  0
 20 21  1  0
 21 22  1  0
 21 23  1  0
 23 24  2  0
 23 25  1  0
 25 26  1  0
 26 27  1  0
 27 28  2  0
 28 29  1  0
 29 30  2  0
 19 31  1  0
 31 32  2  0
  6 33  2  0
 33  2  1  0
 14 10  1  0
 32 16  1  0
 30 26  1  0
  1 34  1  0
  1 35  1  0
  1 36  1  0
  3 37  1  0
  4 38  1  0
  5 39  1  0
  7 40  1  0
 10 41  1  0
 11 42  1  0
 11 43  1  0
 12 44  1  0
 12 45  1  0
 13 46  1  0
 13 47  1  0
 15 48  1  0
 17 49  1  0
 18 50  1  0
 20 51  1  0
 20 52  1  0
 22 53  1  0
 22 54  1  0
 22 55  1  0
 25 56  1  0
 25 57  1  0
 27 58  1  0
 30 59  1  0
 31 60  1  0
 32 61  1  0
M  END
>  <Energy>  (8) 
132.37016870265199

>  <compound_id>  (8) 
3861

>  <target_id>  (8) 
1

>  <reference_id>  (8) 
53

>  <inspiration_ids>  (8) 
[135, 53]

>  <energy_score>  (8) 
9.72558721371638

>  <distance_score>  (8) 
0.8993021060160002

>  <path>  (8) 
/opt/xchem-fragalysis-2/maxwin/BulkDock/SCRATCH/505735/C3861-P53/C3861-P53.minimised.mol

>  <scratch_subdir>  (8) 
/opt/xchem-fragalysis-2/maxwin/BulkDock/SCRATCH/505735/C3861-P53

>  <fragmenstein_runtime>  (8) 
8.526163339614868

>  <fragmenstein_outcome>  (8) 
too contorted

>  <fragmenstein_mode>  (8) 
expansion

>  <fragmenstein_error>  (8) 


$$$$
C3862-P135
     RDKit          3D

 48 50  0  0  0  0  0  0  0  0999 V2000
    3.1684   -3.7459   35.3292 C   0  0  0  0  0  0  0  0  0  0  0  0
    2.0748   -3.9378   36.3390 C   0  0  0  0  0  0  0  0  0  0  0  0
    2.2929   -3.3196   37.5939 C   0  0  0  0  0  0  0  0  0  0  0  0
    1.3486   -3.3837   38.6125 C   0  0  0  0  0  0  0  0  0  0  0  0
    0.1713   -4.0680   38.3869 C   0  0  0  0  0  0  0  0  0  0  0  0
   -0.7480   -4.1316   39.3575 F   0  0  0  0  0  0  0  0  0  0  0  0
   -0.0687   -4.6948   37.1695 C   0  0  0  0  0  0  0  0  0  0  0  0
    0.8799   -4.6577   36.1302 C   0  0  0  0  0  0  0  0  0  0  0  0
    0.4765   -5.3621   34.9797 N   0  0  0  0  0  0  0  0  0  0  0  0
    1.1762   -5.6616   33.7630 C   0  0  0  0  0  0  0  0  0  0  0  0
    2.3118   -5.4574   33.4426 O   0  0  0  0  0  0  0  0  0  0  0  0
    0.2900   -6.3436   32.8312 C   0  0  0  0  0  0  0  0  0  0  0  0
   -0.7609   -7.0569   33.1966 N   0  0  0  0  0  0  0  0  0  0  0  0
   -1.3034   -7.6249   32.0678 N   0  0  0  0  0  0  0  0  0  0  0  0
   -0.6020   -7.2116   31.0404 C   0  0  0  0  0  0  0  0  0  0  0  0
    0.3812   -6.3742   31.4654 N   0  0  0  0  0  0  0  0  0  0  0  0
    1.2728   -5.6169   30.6169 C   0  0  0  0  0  0  0  0  0  0  0  0
    0.6758   -4.2736   30.2357 C   0  0  0  0  0  0  0  0  0  0  0  0
    0.3350   -4.0883   29.0985 O   0  0  0  0  0  0  0  0  0  0  0  0
    0.5520   -3.4412   31.3907 N   0  0  0  0  0  0  0  0  0  0  0  0
    1.7754   -2.5759   31.5382 C   0  0  0  0  0  0  0  0  0  0  0  0
   -0.1499   -2.1044   31.5812 C   0  0  0  0  0  0  0  0  0  0  0  0
   -0.2485   -1.0917   30.4525 C   0  0  0  0  0  0  0  0  0  0  0  0
    0.3727    0.1629   30.5680 C   0  0  0  0  0  0  0  0  0  0  0  0
    0.2891    1.0940   29.5316 C   0  0  0  0  0  0  0  0  0  0  0  0
   -0.4322    0.7923   28.3793 C   0  0  0  0  0  0  0  0  0  0  0  0
   -1.0681   -0.4395   28.2614 C   0  0  0  0  0  0  0  0  0  0  0  0
   -0.9803   -1.3746   29.2914 C   0  0  0  0  0  0  0  0  0  0  0  0
    3.9081   -3.0115   35.6700 H   0  0  0  0  0  0  0  0  0  0  0  0
    2.7652   -3.3416   34.3980 H   0  0  0  0  0  0  0  0  0  0  0  0
    3.7125   -4.6810   35.1722 H   0  0  0  0  0  0  0  0  0  0  0  0
    3.2144   -2.7702   37.7829 H   0  0  0  0  0  0  0  0  0  0  0  0
    1.5227   -2.9042   39.5700 H   0  0  0  0  0  0  0  0  0  0  0  0
   -1.0118   -5.2223   37.0543 H   0  0  0  0  0  0  0  0  0  0  0  0
   -0.4623   -5.7581   34.9290 H   0  0  0  0  0  0  0  0  0  0  0  0
   -0.7733   -7.4635   30.0047 H   0  0  0  0  0  0  0  0  0  0  0  0
    2.2466   -5.4976   31.0916 H   0  0  0  0  0  0  0  0  0  0  0  0
    1.4365   -6.1986   29.7031 H   0  0  0  0  0  0  0  0  0  0  0  0
    2.6121   -3.2888   31.5963 H   0  0  0  0  0  0  0  0  0  0  0  0
    2.0320   -2.0036   30.6366 H   0  0  0  0  0  0  0  0  0  0  0  0
    1.8807   -2.0229   32.4831 H   0  0  0  0  0  0  0  0  0  0  0  0
    0.0001   -1.6473   32.5750 H   0  0  0  0  0  0  0  0  0  0  0  0
   -1.1938   -2.4454   31.6892 H   0  0  0  0  0  0  0  0  0  0  0  0
    0.9319    0.4242   31.4630 H   0  0  0  0  0  0  0  0  0  0  0  0
    0.7785    2.0599   29.6223 H   0  0  0  0  0  0  0  0  0  0  0  0
   -0.5073    1.5164   27.5728 H   0  0  0  0  0  0  0  0  0  0  0  0
   -1.6305   -0.6836   27.3617 H   0  0  0  0  0  0  0  0  0  0  0  0
   -1.4837   -2.3315   29.1608 H   0  0  0  0  0  0  0  0  0  0  0  0
  1  2  1  0
  2  3  2  0
  3  4  1  0
  4  5  2  0
  5  6  1  0
  5  7  1  0
  7  8  2  0
  8  9  1  0
  9 10  1  0
 10 11  2  0
 10 12  1  0
 12 13  2  0
 13 14  1  0
 14 15  2  0
 15 16  1  0
 16 17  1  0
 17 18  1  0
 18 19  2  0
 18 20  1  0
 20 21  1  0
 20 22  1  0
 22 23  1  0
 23 24  2  0
 24 25  1  0
 25 26  2  0
 26 27  1  0
 27 28  2  0
  8  2  1  0
 16 12  1  0
 28 23  1  0
  1 29  1  0
  1 30  1  0
  1 31  1  0
  3 32  1  0
  4 33  1  0
  7 34  1  0
  9 35  1  0
 15 36  1  0
 17 37  1  0
 17 38  1  0
 21 39  1  0
 21 40  1  0
 21 41  1  0
 22 42  1  0
 22 43  1  0
 24 44  1  0
 25 45  1  0
 26 46  1  0
 27 47  1  0
 28 48  1  0
M  END
>  <Energy>  (9) 
96.603647830131706

>  <compound_id>  (9) 
3862

>  <target_id>  (9) 
1

>  <reference_id>  (9) 
135

>  <inspiration_ids>  (9) 
[135, 56]

>  <energy_score>  (9) 
43.73828667636752

>  <distance_score>  (9) 
1.6178480072877444

>  <path>  (9) 
/opt/xchem-fragalysis-2/maxwin/BulkDock/SCRATCH/505735/C3862-P135/C3862-P135.minimised.mol

>  <scratch_subdir>  (9) 
/opt/xchem-fragalysis-2/maxwin/BulkDock/SCRATCH/505735/C3862-P135

>  <fragmenstein_runtime>  (9) 
5.57681679725647

>  <fragmenstein_outcome>  (9) 
too moved

>  <fragmenstein_mode>  (9) 
expansion

>  <fragmenstein_error>  (9) 


$$$$
C3862-P56
     RDKit          3D

 48 50  0  0  0  0  0  0  0  0999 V2000
    2.4550   -4.0434   35.6100 C   0  0  0  0  0  0  0  0  0  0  0  0
    1.4495   -3.7041   36.6783 C   0  0  0  0  0  0  0  0  0  0  0  0
    1.8769   -2.8575   37.7174 C   0  0  0  0  0  0  0  0  0  0  0  0
    0.9827   -2.4130   38.6853 C   0  0  0  0  0  0  0  0  0  0  0  0
   -0.3456   -2.8009   38.6063 C   0  0  0  0  0  0  0  0  0  0  0  0
   -1.2064   -2.3784   39.5402 F   0  0  0  0  0  0  0  0  0  0  0  0
   -0.7952   -3.6416   37.5950 C   0  0  0  0  0  0  0  0  0  0  0  0
    0.1092   -4.1427   36.6602 C   0  0  0  0  0  0  0  0  0  0  0  0
   -0.3670   -5.0861   35.7510 N   0  0  0  0  0  0  0  0  0  0  0  0
    0.2527   -6.2521   35.1957 C   0  0  0  0  0  0  0  0  0  0  0  0
    1.3100   -6.7612   35.4289 O   0  0  0  0  0  0  0  0  0  0  0  0
   -0.5471   -6.7978   34.1195 C   0  0  0  0  0  0  0  0  0  0  0  0
   -1.6564   -7.4975   34.2666 N   0  0  0  0  0  0  0  0  0  0  0  0
   -2.0161   -7.9746   33.0219 N   0  0  0  0  0  0  0  0  0  0  0  0
   -1.1504   -7.5088   32.1515 C   0  0  0  0  0  0  0  0  0  0  0  0
   -0.2403   -6.7285   32.7897 N   0  0  0  0  0  0  0  0  0  0  0  0
    0.8085   -5.9504   32.1719 C   0  0  0  0  0  0  0  0  0  0  0  0
    0.2512   -4.6541   31.5970 C   0  0  0  0  0  0  0  0  0  0  0  0
   -0.6692   -4.6858   30.8228 O   0  0  0  0  0  0  0  0  0  0  0  0
    0.9714   -3.5462   32.1389 N   0  0  0  0  0  0  0  0  0  0  0  0
    2.1552   -3.2230   31.2678 C   0  0  0  0  0  0  0  0  0  0  0  0
    0.7380   -2.0447   32.0045 C   0  0  0  0  0  0  0  0  0  0  0  0
    0.3281   -1.3693   30.7009 C   0  0  0  0  0  0  0  0  0  0  0  0
    1.1378   -0.3553   30.1601 C   0  0  0  0  0  0  0  0  0  0  0  0
    0.7943    0.2660   28.9588 C   0  0  0  0  0  0  0  0  0  0  0  0
   -0.3655   -0.1110   28.2876 C   0  0  0  0  0  0  0  0  0  0  0  0
   -1.1865   -1.1012   28.8202 C   0  0  0  0  0  0  0  0  0  0  0  0
   -0.8495   -1.7161   30.0269 C   0  0  0  0  0  0  0  0  0  0  0  0
    3.2265   -3.2678   35.5408 H   0  0  0  0  0  0  0  0  0  0  0  0
    1.9784   -4.0812   34.6287 H   0  0  0  0  0  0  0  0  0  0  0  0
    2.9527   -4.9914   35.8118 H   0  0  0  0  0  0  0  0  0  0  0  0
    2.9179   -2.5451   37.7711 H   0  0  0  0  0  0  0  0  0  0  0  0
    1.3111   -1.7673   39.4923 H   0  0  0  0  0  0  0  0  0  0  0  0
   -1.8325   -3.9496   37.6029 H   0  0  0  0  0  0  0  0  0  0  0  0
   -1.3113   -4.9987   35.3719 H   0  0  0  0  0  0  0  0  0  0  0  0
   -1.1370   -7.6808   31.0858 H   0  0  0  0  0  0  0  0  0  0  0  0
    1.2350   -6.5316   31.3527 H   0  0  0  0  0  0  0  0  0  0  0  0
    1.5932   -5.7563   32.9063 H   0  0  0  0  0  0  0  0  0  0  0  0
    2.7501   -4.1507   31.2714 H   0  0  0  0  0  0  0  0  0  0  0  0
    1.9146   -3.1174   30.2009 H   0  0  0  0  0  0  0  0  0  0  0  0
    2.8761   -2.4895   31.6596 H   0  0  0  0  0  0  0  0  0  0  0  0
   -0.1595   -1.9198   32.6330 H   0  0  0  0  0  0  0  0  0  0  0  0
    1.4768   -1.4613   32.5814 H   0  0  0  0  0  0  0  0  0  0  0  0
    2.0496   -0.0460   30.6665 H   0  0  0  0  0  0  0  0  0  0  0  0
    1.4344    1.0394   28.5423 H   0  0  0  0  0  0  0  0  0  0  0  0
   -0.6298    0.3653   27.3487 H   0  0  0  0  0  0  0  0  0  0  0  0
   -2.0887   -1.4051   28.2944 H   0  0  0  0  0  0  0  0  0  0  0  0
   -1.5159   -2.4745   30.4277 H   0  0  0  0  0  0  0  0  0  0  0  0
  1  2  1  0
  2  3  2  0
  3  4  1  0
  4  5  2  0
  5  6  1  0
  5  7  1  0
  7  8  2  0
  8  9  1  0
  9 10  1  0
 10 11  2  0
 10 12  1  0
 12 13  2  0
 13 14  1  0
 14 15  2  0
 15 16  1  0
 16 17  1  0
 17 18  1  0
 18 19  2  0
 18 20  1  0
 20 21  1  0
 20 22  1  0
 22 23  1  0
 23 24  2  0
 24 25  1  0
 25 26  2  0
 26 27  1  0
 27 28  2  0
  8  2  1  0
 16 12  1  0
 28 23  1  0
  1 29  1  0
  1 30  1  0
  1 31  1  0
  3 32  1  0
  4 33  1  0
  7 34  1  0
  9 35  1  0
 15 36  1  0
 17 37  1  0
 17 38  1  0
 21 39  1  0
 21 40  1  0
 21 41  1  0
 22 42  1  0
 22 43  1  0
 24 44  1  0
 25 45  1  0
 26 46  1  0
 27 47  1  0
 28 48  1  0
M  END
>  <Energy>  (10) 
110.96447723533669

>  <compound_id>  (10) 
3862

>  <target_id>  (10) 
1

>  <reference_id>  (10) 
56

>  <inspiration_ids>  (10) 
[135, 56]

>  <energy_score>  (10) 
58.09911608157205

>  <distance_score>  (10) 
1.25323641966634

>  <path>  (10) 
/opt/xchem-fragalysis-2/maxwin/BulkDock/SCRATCH/505735/C3862-P56/C3862-P56.minimised.mol

>  <scratch_subdir>  (10) 
/opt/xchem-fragalysis-2/maxwin/BulkDock/SCRATCH/505735/C3862-P56

>  <fragmenstein_runtime>  (10) 
5.143710613250732

>  <fragmenstein_outcome>  (10) 
too moved

>  <fragmenstein_mode>  (10) 
expansion

>  <fragmenstein_error>  (10) 


$$$$
C3899-P135
     RDKit          3D

 63 65  0  0  0  0  0  0  0  0999 V2000
    4.7834    5.6371   28.2935 C   0  0  0  0  0  0  0  0  0  0  0  0
    4.0814    5.6213   26.9478 C   0  0  0  0  0  0  0  0  0  0  0  0
    2.5857    5.8846   27.0630 C   0  0  0  0  0  0  0  0  0  0  0  0
    2.0394    6.7964   26.6210 O   0  0  0  0  0  0  0  0  0  0  0  0
    2.0603    4.5556   27.8857 N   0  0  0  0  0  0  0  0  0  0  0  0
    0.3289    3.9337   28.6694 C   0  0  0  0  0  0  0  0  0  0  0  0
    0.7949    2.4342   29.5166 C   0  0  0  0  0  0  0  0  0  0  0  0
    0.0052    1.3081   28.9947 N   0  0  0  0  0  0  0  0  0  0  0  0
    0.5656    0.0685   29.3660 C   0  0  0  0  0  0  0  0  0  0  0  0
    1.5018   -0.5571   28.5378 C   0  0  0  0  0  0  0  0  0  0  0  0
    2.1376   -1.7256   28.9470 C   0  0  0  0  0  0  0  0  0  0  0  0
    1.8345   -2.2835   30.1863 C   0  0  0  0  0  0  0  0  0  0  0  0
    0.8811   -1.6854   31.0236 C   0  0  0  0  0  0  0  0  0  0  0  0
    0.5083   -2.3128   32.3571 C   0  0  0  0  0  0  0  0  0  0  0  0
    0.5621   -3.8241   32.3924 N   0  0  0  0  0  0  0  0  0  0  0  0
   -0.8661   -3.6661   31.9087 C   0  0  0  0  0  0  0  0  0  0  0  0
    0.6118   -4.7294   33.4943 C   0  0  0  0  0  0  0  0  0  0  0  0
    0.5329   -4.5255   34.6786 O   0  0  0  0  0  0  0  0  0  0  0  0
    0.9155   -6.1520   33.0293 C   0  0  0  0  0  0  0  0  0  0  0  0
   -0.0591   -6.7998   32.1877 N   0  0  0  0  0  0  0  0  0  0  0  0
   -1.0815   -7.6026   32.5836 C   0  0  0  0  0  0  0  0  0  0  0  0
   -1.6683   -8.1077   31.5218 N   0  0  0  0  0  0  0  0  0  0  0  0
   -1.0012   -7.6503   30.4122 N   0  0  0  0  0  0  0  0  0  0  0  0
   -0.0262   -6.8771   30.8284 C   0  0  0  0  0  0  0  0  0  0  0  0
    0.2745   -0.4889   30.6145 C   0  0  0  0  0  0  0  0  0  0  0  0
    0.7267    4.2870   28.0477 C   0  0  0  0  0  0  0  0  0  0  0  0
   -0.1321    5.6774   27.6897 C   0  0  0  0  0  0  0  0  0  0  0  0
   -1.0483    5.7803   26.6265 C   0  0  0  0  0  0  0  0  0  0  0  0
   -1.2060    4.7436   25.6682 C   0  0  0  0  0  0  0  0  0  0  0  0
   -2.2792    4.8617   24.6141 C   0  0  0  0  0  0  0  0  0  0  0  0
   -0.3837    3.5994   25.6439 C   0  0  0  0  0  0  0  0  0  0  0  0
    0.5702    3.4071   26.6411 C   0  0  0  0  0  0  0  0  0  0  0  0
    1.5333    2.4425   26.4208 O   0  0  0  0  0  0  0  0  0  0  0  0
    4.5648    6.5617   28.8379 H   0  0  0  0  0  0  0  0  0  0  0  0
    4.4728    4.7977   28.9233 H   0  0  0  0  0  0  0  0  0  0  0  0
    5.8670    5.5673   28.1557 H   0  0  0  0  0  0  0  0  0  0  0  0
    4.5079    6.3998   26.3047 H   0  0  0  0  0  0  0  0  0  0  0  0
    4.2369    4.6630   26.4399 H   0  0  0  0  0  0  0  0  0  0  0  0
    0.1975    4.5486   29.7566 H   0  0  0  0  0  0  0  0  0  0  0  0
   -0.8849    3.6151   28.3528 H   0  0  0  0  0  0  0  0  0  0  0  0
    0.5700    2.5868   30.5793 H   0  0  0  0  0  0  0  0  0  0  0  0
    1.8763    2.2943   29.3856 H   0  0  0  0  0  0  0  0  0  0  0  0
   -0.0231    1.3432   27.9712 H   0  0  0  0  0  0  0  0  0  0  0  0
    1.7489   -0.1331   27.5679 H   0  0  0  0  0  0  0  0  0  0  0  0
    2.8663   -2.1987   28.2944 H   0  0  0  0  0  0  0  0  0  0  0  0
    2.3370   -3.1986   30.4890 H   0  0  0  0  0  0  0  0  0  0  0  0
   -0.3107   -1.8122   32.9029 H   0  0  0  0  0  0  0  0  0  0  0  0
    1.3595   -2.0490   33.0069 H   0  0  0  0  0  0  0  0  0  0  0  0
   -1.2504   -4.6734   31.7407 H   0  0  0  0  0  0  0  0  0  0  0  0
   -1.5544   -3.2868   32.6809 H   0  0  0  0  0  0  0  0  0  0  0  0
   -0.9953   -3.1974   30.9244 H   0  0  0  0  0  0  0  0  0  0  0  0
    1.0567   -6.7881   33.9119 H   0  0  0  0  0  0  0  0  0  0  0  0
    1.8722   -6.1392   32.4938 H   0  0  0  0  0  0  0  0  0  0  0  0
   -1.3494   -7.7991   33.6133 H   0  0  0  0  0  0  0  0  0  0  0  0
    0.6952   -6.3652   30.2068 H   0  0  0  0  0  0  0  0  0  0  0  0
   -0.4513    0.0094   31.2518 H   0  0  0  0  0  0  0  0  0  0  0  0
    0.0247    6.5279   28.3597 H   0  0  0  0  0  0  0  0  0  0  0  0
   -1.6258    6.6969   26.5231 H   0  0  0  0  0  0  0  0  0  0  0  0
   -3.1468    4.2572   24.8958 H   0  0  0  0  0  0  0  0  0  0  0  0
   -1.9058    4.5168   23.6438 H   0  0  0  0  0  0  0  0  0  0  0  0
   -2.5970    5.9011   24.4840 H   0  0  0  0  0  0  0  0  0  0  0  0
   -0.4477    2.9095   24.8106 H   0  0  0  0  0  0  0  0  0  0  0  0
    2.2966    2.7340   26.9564 H   0  0  0  0  0  0  0  0  0  0  0  0
  1  2  1  0
  2  3  1  0
  3  4  2  0
  3  5  1  0
  5  6  1  0
  6  7  1  0
  7  8  1  0
  8  9  1  0
  9 10  2  0
 10 11  1  0
 11 12  2  0
 12 13  1  0
 13 14  1  0
 14 15  1  0
 15 16  1  0
 15 17  1  0
 17 18  2  0
 17 19  1  0
 19 20  1  0
 20 21  1  0
 21 22  2  0
 22 23  1  0
 23 24  2  0
 13 25  2  0
  5 26  1  0
 26 27  2  0
 27 28  1  0
 28 29  2  0
 29 30  1  0
 29 31  1  0
 31 32  2  0
 32 33  1  0
 25  9  1  0
 32 26  1  0
 24 20  1  0
  1 34  1  0
  1 35  1  0
  1 36  1  0
  2 37  1  0
  2 38  1  0
  6 39  1  0
  6 40  1  0
  7 41  1  0
  7 42  1  0
  8 43  1  0
 10 44  1  0
 11 45  1  0
 12 46  1  0
 14 47  1  0
 14 48  1  0
 16 49  1  0
 16 50  1  0
 16 51  1  0
 19 52  1  0
 19 53  1  0
 21 54  1  0
 24 55  1  0
 25 56  1  0
 27 57  1  0
 28 58  1  0
 30 59  1  0
 30 60  1  0
 30 61  1  0
 31 62  1  0
 33 63  1  0
M  END
>  <Energy>  (11) 
819.00602415568414

>  <compound_id>  (11) 
3899

>  <target_id>  (11) 
1

>  <reference_id>  (11) 
135

>  <inspiration_ids>  (11) 
[135, 57]

>  <energy_score>  (11) 
729.712476380548

>  <distance_score>  (11) 
1.6842215140849517

>  <path>  (11) 
/opt/xchem-fragalysis-2/maxwin/BulkDock/SCRATCH/505735/C3899-P135/C3899-P135.minimised.mol

>  <scratch_subdir>  (11) 
/opt/xchem-fragalysis-2/maxwin/BulkDock/SCRATCH/505735/C3899-P135

>  <fragmenstein_runtime>  (11) 
13.7404146194458

>  <fragmenstein_outcome>  (11) 
too moved

>  <fragmenstein_mode>  (11) 
expansion

>  <fragmenstein_error>  (11) 


$$$$
C3899-P57
     RDKit          3D

 63 65  0  0  0  0  0  0  0  0999 V2000
    4.9232    4.1612   27.9720 C   0  0  0  0  0  0  0  0  0  0  0  0
    4.0645    5.3781   28.2564 C   0  0  0  0  0  0  0  0  0  0  0  0
    2.9093    5.0404   29.1870 C   0  0  0  0  0  0  0  0  0  0  0  0
    2.8843    5.3050   30.3076 O   0  0  0  0  0  0  0  0  0  0  0  0
    1.8618    4.3094   28.2224 N   0  0  0  0  0  0  0  0  0  0  0  0
    0.1856    3.4497   28.9157 C   0  0  0  0  0  0  0  0  0  0  0  0
    0.7651    1.9910   29.7381 C   0  0  0  0  0  0  0  0  0  0  0  0
   -0.0533    0.8236   29.3527 N   0  0  0  0  0  0  0  0  0  0  0  0
    0.7454   -0.3496   29.4292 C   0  0  0  0  0  0  0  0  0  0  0  0
    1.5063   -0.7338   28.3207 C   0  0  0  0  0  0  0  0  0  0  0  0
    2.5056   -1.6895   28.4484 C   0  0  0  0  0  0  0  0  0  0  0  0
    2.7396   -2.2841   29.6846 C   0  0  0  0  0  0  0  0  0  0  0  0
    1.9341   -1.9850   30.7973 C   0  0  0  0  0  0  0  0  0  0  0  0
    2.1968   -2.6519   32.1451 C   0  0  0  0  0  0  0  0  0  0  0  0
    1.3773   -3.8462   32.6261 N   0  0  0  0  0  0  0  0  0  0  0  0
    2.2508   -4.5699   31.6414 C   0  0  0  0  0  0  0  0  0  0  0  0
    0.0012   -4.1858   32.4068 C   0  0  0  0  0  0  0  0  0  0  0  0
   -0.8331   -3.6636   31.7144 O   0  0  0  0  0  0  0  0  0  0  0  0
   -0.3285   -5.4737   33.1524 C   0  0  0  0  0  0  0  0  0  0  0  0
   -0.6925   -6.5655   32.2692 N   0  0  0  0  0  0  0  0  0  0  0  0
   -1.2364   -7.7473   32.6666 C   0  0  0  0  0  0  0  0  0  0  0  0
   -1.4477   -8.5091   31.6179 N   0  0  0  0  0  0  0  0  0  0  0  0
   -1.0250   -7.8202   30.5109 N   0  0  0  0  0  0  0  0  0  0  0  0
   -0.5752   -6.6557   30.9173 C   0  0  0  0  0  0  0  0  0  0  0  0
    0.9441   -0.9973   30.6555 C   0  0  0  0  0  0  0  0  0  0  0  0
    0.6176    3.8790   28.3293 C   0  0  0  0  0  0  0  0  0  0  0  0
   -0.1862    5.2964   28.0406 C   0  0  0  0  0  0  0  0  0  0  0  0
   -1.0071    5.5149   26.9232 C   0  0  0  0  0  0  0  0  0  0  0  0
   -1.1243    4.5618   25.8793 C   0  0  0  0  0  0  0  0  0  0  0  0
   -2.1255    4.7918   24.7745 C   0  0  0  0  0  0  0  0  0  0  0  0
   -0.3291    3.4007   25.8229 C   0  0  0  0  0  0  0  0  0  0  0  0
    0.5511    3.1063   26.8631 C   0  0  0  0  0  0  0  0  0  0  0  0
    1.5303    2.1698   26.6096 O   0  0  0  0  0  0  0  0  0  0  0  0
    5.2821    3.7088   28.9024 H   0  0  0  0  0  0  0  0  0  0  0  0
    4.3662    3.3953   27.4242 H   0  0  0  0  0  0  0  0  0  0  0  0
    5.7921    4.4415   27.3687 H   0  0  0  0  0  0  0  0  0  0  0  0
    4.6677    6.1575   28.7361 H   0  0  0  0  0  0  0  0  0  0  0  0
    3.6758    5.8050   27.3253 H   0  0  0  0  0  0  0  0  0  0  0  0
   -0.0794    3.9906   30.0056 H   0  0  0  0  0  0  0  0  0  0  0  0
   -0.9611    3.0711   28.4936 H   0  0  0  0  0  0  0  0  0  0  0  0
    0.6670    2.1647   30.8170 H   0  0  0  0  0  0  0  0  0  0  0  0
    1.8304    1.8747   29.4934 H   0  0  0  0  0  0  0  0  0  0  0  0
   -0.3643    0.9105   28.3807 H   0  0  0  0  0  0  0  0  0  0  0  0
    1.3535   -0.2569   27.3572 H   0  0  0  0  0  0  0  0  0  0  0  0
    3.1164   -1.9491   27.5885 H   0  0  0  0  0  0  0  0  0  0  0  0
    3.5595   -2.9938   29.7623 H   0  0  0  0  0  0  0  0  0  0  0  0
    3.2696   -2.6973   32.4028 H   0  0  0  0  0  0  0  0  0  0  0  0
    1.8664   -1.8907   32.8716 H   0  0  0  0  0  0  0  0  0  0  0  0
    1.8876   -4.5121   30.6079 H   0  0  0  0  0  0  0  0  0  0  0  0
    2.0935   -5.6343   31.8752 H   0  0  0  0  0  0  0  0  0  0  0  0
    3.3419   -4.4926   31.7628 H   0  0  0  0  0  0  0  0  0  0  0  0
   -1.1726   -5.2820   33.8203 H   0  0  0  0  0  0  0  0  0  0  0  0
    0.5160   -5.8201   33.7580 H   0  0  0  0  0  0  0  0  0  0  0  0
   -1.4653   -7.9940   33.6939 H   0  0  0  0  0  0  0  0  0  0  0  0
   -0.1964   -5.8730   30.2743 H   0  0  0  0  0  0  0  0  0  0  0  0
    0.3350   -0.7035   31.5071 H   0  0  0  0  0  0  0  0  0  0  0  0
   -0.0719    6.0804   28.7960 H   0  0  0  0  0  0  0  0  0  0  0  0
   -1.5516    6.4545   26.8535 H   0  0  0  0  0  0  0  0  0  0  0  0
   -3.0383    4.2222   24.9748 H   0  0  0  0  0  0  0  0  0  0  0  0
   -1.7152    4.4775   23.8088 H   0  0  0  0  0  0  0  0  0  0  0  0
   -2.3814    5.8525   24.6847 H   0  0  0  0  0  0  0  0  0  0  0  0
   -0.3468    2.7815   24.9342 H   0  0  0  0  0  0  0  0  0  0  0  0
    2.2755    2.4380   27.1797 H   0  0  0  0  0  0  0  0  0  0  0  0
  1  2  1  0
  2  3  1  0
  3  4  2  0
  3  5  1  0
  5  6  1  0
  6  7  1  0
  7  8  1  0
  8  9  1  0
  9 10  2  0
 10 11  1  0
 11 12  2  0
 12 13  1  0
 13 14  1  0
 14 15  1  0
 15 16  1  0
 15 17  1  0
 17 18  2  0
 17 19  1  0
 19 20  1  0
 20 21  1  0
 21 22  2  0
 22 23  1  0
 23 24  2  0
 13 25  2  0
  5 26  1  0
 26 27  2  0
 27 28  1  0
 28 29  2  0
 29 30  1  0
 29 31  1  0
 31 32  2  0
 32 33  1  0
 25  9  1  0
 32 26  1  0
 24 20  1  0
  1 34  1  0
  1 35  1  0
  1 36  1  0
  2 37  1  0
  2 38  1  0
  6 39  1  0
  6 40  1  0
  7 41  1  0
  7 42  1  0
  8 43  1  0
 10 44  1  0
 11 45  1  0
 12 46  1  0
 14 47  1  0
 14 48  1  0
 16 49  1  0
 16 50  1  0
 16 51  1  0
 19 52  1  0
 19 53  1  0
 21 54  1  0
 24 55  1  0
 25 56  1  0
 27 57  1  0
 28 58  1  0
 30 59  1  0
 30 60  1  0
 30 61  1  0
 31 62  1  0
 33 63  1  0
M  END
>  <Energy>  (12) 
822.52865863719342

>  <compound_id>  (12) 
3899

>  <target_id>  (12) 
1

>  <reference_id>  (12) 
57

>  <inspiration_ids>  (12) 
[135, 57]

>  <energy_score>  (12) 
733.2351108620521

>  <distance_score>  (12) 
1.8517182731562094

>  <path>  (12) 
/opt/xchem-fragalysis-2/maxwin/BulkDock/SCRATCH/505735/C3899-P57/C3899-P57.minimised.mol

>  <scratch_subdir>  (12) 
/opt/xchem-fragalysis-2/maxwin/BulkDock/SCRATCH/505735/C3899-P57

>  <fragmenstein_runtime>  (12) 
10.095856428146362

>  <fragmenstein_outcome>  (12) 
too moved

>  <fragmenstein_mode>  (12) 
expansion

>  <fragmenstein_error>  (12) 


$$$$
C3900-P135
     RDKit          3D

 44 45  0  0  0  0  0  0  0  0999 V2000
   -2.4366   -1.7066   38.2550 C   0  0  0  0  0  0  0  0  0  0  0  0
   -2.6266   -2.0409   36.8798 O   0  0  0  0  0  0  0  0  0  0  0  0
   -1.6732   -1.5383   36.0437 C   0  0  0  0  0  0  0  0  0  0  0  0
   -0.7100   -0.8653   36.3949 O   0  0  0  0  0  0  0  0  0  0  0  0
   -1.9301   -2.0036   34.6204 C   0  0  0  0  0  0  0  0  0  0  0  0
   -1.2152   -1.1921   33.6587 N   0  0  0  0  0  0  0  0  0  0  0  0
   -1.6838   -0.3924   32.5828 C   0  0  0  0  0  0  0  0  0  0  0  0
   -2.7934   -0.1186   32.2393 O   0  0  0  0  0  0  0  0  0  0  0  0
   -0.5677    0.1638   31.7767 C   0  0  0  0  0  0  0  0  0  0  0  0
    0.1838    1.2125   32.3174 C   0  0  0  0  0  0  0  0  0  0  0  0
    1.2267    1.7720   31.5800 C   0  0  0  0  0  0  0  0  0  0  0  0
    1.5273    1.2826   30.3114 C   0  0  0  0  0  0  0  0  0  0  0  0
    0.7892    0.2295   29.7773 C   0  0  0  0  0  0  0  0  0  0  0  0
   -0.2738   -0.3396   30.4995 C   0  0  0  0  0  0  0  0  0  0  0  0
   -1.0019   -1.5236   29.8886 C   0  0  0  0  0  0  0  0  0  0  0  0
   -0.3790   -2.7712   30.5058 N   0  0  0  0  0  0  0  0  0  0  0  0
   -0.4977   -3.2634   29.1014 C   0  0  0  0  0  0  0  0  0  0  0  0
   -0.9203   -3.7315   31.4092 C   0  0  0  0  0  0  0  0  0  0  0  0
   -2.0349   -3.8533   31.8458 O   0  0  0  0  0  0  0  0  0  0  0  0
    0.1823   -4.6673   31.8974 C   0  0  0  0  0  0  0  0  0  0  0  0
   -0.2049   -6.0477   31.7199 N   0  0  0  0  0  0  0  0  0  0  0  0
   -0.9448   -6.8199   32.5574 C   0  0  0  0  0  0  0  0  0  0  0  0
   -1.1855   -7.9746   31.9777 N   0  0  0  0  0  0  0  0  0  0  0  0
   -0.5690   -7.9659   30.7488 N   0  0  0  0  0  0  0  0  0  0  0  0
    0.0547   -6.8188   30.6327 C   0  0  0  0  0  0  0  0  0  0  0  0
   -2.4722   -0.6217   38.3938 H   0  0  0  0  0  0  0  0  0  0  0  0
   -1.4891   -2.1145   38.6207 H   0  0  0  0  0  0  0  0  0  0  0  0
   -3.2517   -2.1571   38.8282 H   0  0  0  0  0  0  0  0  0  0  0  0
   -2.9981   -1.9443   34.3939 H   0  0  0  0  0  0  0  0  0  0  0  0
   -1.5666   -3.0286   34.5221 H   0  0  0  0  0  0  0  0  0  0  0  0
   -0.2034   -1.1345   33.6965 H   0  0  0  0  0  0  0  0  0  0  0  0
   -0.0543    1.6062   33.3032 H   0  0  0  0  0  0  0  0  0  0  0  0
    1.8031    2.5960   31.9943 H   0  0  0  0  0  0  0  0  0  0  0  0
    2.3389    1.7232   29.7370 H   0  0  0  0  0  0  0  0  0  0  0  0
    1.0455   -0.1434   28.7868 H   0  0  0  0  0  0  0  0  0  0  0  0
   -1.0091   -1.3125   28.8013 H   0  0  0  0  0  0  0  0  0  0  0  0
   -2.0542   -1.5075   30.1968 H   0  0  0  0  0  0  0  0  0  0  0  0
    0.2100   -2.7750   28.4150 H   0  0  0  0  0  0  0  0  0  0  0  0
   -0.1508   -4.3035   29.1134 H   0  0  0  0  0  0  0  0  0  0  0  0
   -1.5310   -3.3391   28.7459 H   0  0  0  0  0  0  0  0  0  0  0  0
    0.3553   -4.4884   32.9638 H   0  0  0  0  0  0  0  0  0  0  0  0
    1.1254   -4.5051   31.3652 H   0  0  0  0  0  0  0  0  0  0  0  0
   -1.3018   -6.5033   33.5278 H   0  0  0  0  0  0  0  0  0  0  0  0
    0.6726   -6.5054   29.8065 H   0  0  0  0  0  0  0  0  0  0  0  0
  1  2  1  0
  2  3  1  0
  3  4  2  0
  3  5  1  0
  5  6  1  0
  6  7  1  0
  7  8  2  0
  7  9  1  0
  9 10  2  0
 10 11  1  0
 11 12  2  0
 12 13  1  0
 13 14  2  0
 14 15  1  0
 15 16  1  0
 16 17  1  0
 16 18  1  0
 18 19  2  0
 18 20  1  0
 20 21  1  0
 21 22  1  0
 22 23  2  0
 23 24  1  0
 24 25  2  0
 14  9  1  0
 25 21  1  0
  1 26  1  0
  1 27  1  0
  1 28  1  0
  5 29  1  0
  5 30  1  0
  6 31  1  0
 10 32  1  0
 11 33  1  0
 12 34  1  0
 13 35  1  0
 15 36  1  0
 15 37  1  0
 17 38  1  0
 17 39  1  0
 17 40  1  0
 20 41  1  0
 20 42  1  0
 22 43  1  0
 25 44  1  0
M  END
>  <Energy>  (13) 
98.101174654210567

>  <compound_id>  (13) 
3900

>  <target_id>  (13) 
1

>  <reference_id>  (13) 
135

>  <inspiration_ids>  (13) 
[135, 59]

>  <energy_score>  (13) 
30.9935509027369

>  <distance_score>  (13) 
2.888569800274314

>  <path>  (13) 
/opt/xchem-fragalysis-2/maxwin/BulkDock/SCRATCH/505735/C3900-P135/C3900-P135.minimised.mol

>  <scratch_subdir>  (13) 
/opt/xchem-fragalysis-2/maxwin/BulkDock/SCRATCH/505735/C3900-P135

>  <fragmenstein_runtime>  (13) 
7.342540979385376

>  <fragmenstein_outcome>  (13) 
too moved

>  <fragmenstein_mode>  (13) 
expansion

>  <fragmenstein_error>  (13) 


$$$$
C3900-P59
     RDKit          3D

 44 45  0  0  0  0  0  0  0  0999 V2000
    7.0787    1.3984   31.7237 C   0  0  0  0  0  0  0  0  0  0  0  0
    6.0913    0.6953   32.4790 O   0  0  0  0  0  0  0  0  0  0  0  0
    5.1606    0.0568   31.7128 C   0  0  0  0  0  0  0  0  0  0  0  0
    5.1616    0.0224   30.4875 O   0  0  0  0  0  0  0  0  0  0  0  0
    4.1595   -0.6639   32.6034 C   0  0  0  0  0  0  0  0  0  0  0  0
    2.9579   -0.9654   31.8651 N   0  0  0  0  0  0  0  0  0  0  0  0
    1.5538   -0.3623   31.9604 C   0  0  0  0  0  0  0  0  0  0  0  0
    1.1184    0.4212   32.7010 O   0  0  0  0  0  0  0  0  0  0  0  0
    0.6892   -0.9095   30.8821 C   0  0  0  0  0  0  0  0  0  0  0  0
    0.9947   -0.5226   29.5674 C   0  0  0  0  0  0  0  0  0  0  0  0
    0.1924   -0.9537   28.5164 C   0  0  0  0  0  0  0  0  0  0  0  0
   -0.9031   -1.7729   28.7758 C   0  0  0  0  0  0  0  0  0  0  0  0
   -1.2061   -2.1626   30.0842 C   0  0  0  0  0  0  0  0  0  0  0  0
   -0.4234   -1.7285   31.1651 C   0  0  0  0  0  0  0  0  0  0  0  0
   -0.8213   -2.1115   32.5931 C   0  0  0  0  0  0  0  0  0  0  0  0
   -0.4963   -3.5820   32.8637 N   0  0  0  0  0  0  0  0  0  0  0  0
   -0.8073   -3.1242   34.2715 C   0  0  0  0  0  0  0  0  0  0  0  0
    0.8263   -4.3299   32.8077 C   0  0  0  0  0  0  0  0  0  0  0  0
    1.9199   -3.9320   32.6204 O   0  0  0  0  0  0  0  0  0  0  0  0
    0.5862   -5.7964   33.1570 C   0  0  0  0  0  0  0  0  0  0  0  0
   -0.2873   -6.5388   32.2782 N   0  0  0  0  0  0  0  0  0  0  0  0
   -1.1219   -7.5460   32.6602 C   0  0  0  0  0  0  0  0  0  0  0  0
   -1.6485   -8.1057   31.5954 N   0  0  0  0  0  0  0  0  0  0  0  0
   -1.1331   -7.4665   30.4949 N   0  0  0  0  0  0  0  0  0  0  0  0
   -0.3092   -6.5339   30.9209 C   0  0  0  0  0  0  0  0  0  0  0  0
    6.6106    2.1657   31.0990 H   0  0  0  0  0  0  0  0  0  0  0  0
    7.6608    0.7014   31.1127 H   0  0  0  0  0  0  0  0  0  0  0  0
    7.7558    1.8908   32.4271 H   0  0  0  0  0  0  0  0  0  0  0  0
    3.8869   -0.0238   33.4469 H   0  0  0  0  0  0  0  0  0  0  0  0
    4.5959   -1.6033   32.9507 H   0  0  0  0  0  0  0  0  0  0  0  0
    3.0156   -1.5616   31.0442 H   0  0  0  0  0  0  0  0  0  0  0  0
    1.8400    0.1320   29.3647 H   0  0  0  0  0  0  0  0  0  0  0  0
    0.4092   -0.6492   27.4957 H   0  0  0  0  0  0  0  0  0  0  0  0
   -1.5324   -2.1039   27.9508 H   0  0  0  0  0  0  0  0  0  0  0  0
   -2.0753   -2.7928   30.2487 H   0  0  0  0  0  0  0  0  0  0  0  0
   -0.3127   -1.3809   33.2353 H   0  0  0  0  0  0  0  0  0  0  0  0
   -1.9127   -1.9519   32.6298 H   0  0  0  0  0  0  0  0  0  0  0  0
   -0.8407   -4.0495   34.8634 H   0  0  0  0  0  0  0  0  0  0  0  0
    0.0264   -2.5739   34.7366 H   0  0  0  0  0  0  0  0  0  0  0  0
   -1.7986   -2.6825   34.4551 H   0  0  0  0  0  0  0  0  0  0  0  0
    0.1996   -5.8723   34.1779 H   0  0  0  0  0  0  0  0  0  0  0  0
    1.5514   -6.3176   33.1351 H   0  0  0  0  0  0  0  0  0  0  0  0
   -1.3022   -7.8398   33.6855 H   0  0  0  0  0  0  0  0  0  0  0  0
    0.2690   -5.8607   30.3022 H   0  0  0  0  0  0  0  0  0  0  0  0
  1  2  1  0
  2  3  1  0
  3  4  2  0
  3  5  1  0
  5  6  1  0
  6  7  1  0
  7  8  2  0
  7  9  1  0
  9 10  2  0
 10 11  1  0
 11 12  2  0
 12 13  1  0
 13 14  2  0
 14 15  1  0
 15 16  1  0
 16 17  1  0
 16 18  1  0
 18 19  2  0
 18 20  1  0
 20 21  1  0
 21 22  1  0
 22 23  2  0
 23 24  1  0
 24 25  2  0
 14  9  1  0
 25 21  1  0
  1 26  1  0
  1 27  1  0
  1 28  1  0
  5 29  1  0
  5 30  1  0
  6 31  1  0
 10 32  1  0
 11 33  1  0
 12 34  1  0
 13 35  1  0
 15 36  1  0
 15 37  1  0
 17 38  1  0
 17 39  1  0
 17 40  1  0
 20 41  1  0
 20 42  1  0
 22 43  1  0
 25 44  1  0
M  END
>  <Energy>  (14) 
115.57375336877338

>  <compound_id>  (14) 
3900

>  <target_id>  (14) 
1

>  <reference_id>  (14) 
59

>  <inspiration_ids>  (14) 
[135, 59]

>  <energy_score>  (14) 
59.84581756782234

>  <distance_score>  (14) 
5.565117696748876

>  <path>  (14) 
/opt/xchem-fragalysis-2/maxwin/BulkDock/SCRATCH/505735/C3900-P59/C3900-P59.minimised.mol

>  <scratch_subdir>  (14) 
/opt/xchem-fragalysis-2/maxwin/BulkDock/SCRATCH/505735/C3900-P59

>  <fragmenstein_runtime>  (14) 
4.759158611297607

>  <fragmenstein_outcome>  (14) 
too moved

>  <fragmenstein_mode>  (14) 
expansion

>  <fragmenstein_error>  (14) 


$$$$
C3865-P135
     RDKit          3D

 52 54  0  0  0  0  0  0  0  0999 V2000
   -0.5218    4.4414   24.9006 C   0  0  0  0  0  0  0  0  0  0  0  0
   -1.5789    3.3366   24.9021 C   0  0  0  0  0  0  0  0  0  0  0  0
   -2.9395    3.9507   24.5750 C   0  0  0  0  0  0  0  0  0  0  0  0
   -1.6321    2.5081   26.2063 C   0  0  0  0  0  0  0  0  0  0  0  0
   -0.3542    1.9078   26.5541 N   0  0  0  0  0  0  0  0  0  0  0  0
   -0.5278    1.4792   27.9369 C   0  0  0  0  0  0  0  0  0  0  0  0
    0.8432    1.5910   28.6569 C   0  0  0  0  0  0  0  0  0  0  0  0
    1.1197    0.5169   29.7178 C   0  0  0  0  0  0  0  0  0  0  0  0
   -0.1493    0.0656   30.4537 C   0  0  0  0  0  0  0  0  0  0  0  0
    0.1226   -0.6937   31.8056 C   0  0  0  0  0  0  0  0  0  0  0  0
    0.2000   -2.1727   32.1685 N   0  0  0  0  0  0  0  0  0  0  0  0
    1.2762   -2.1504   31.1368 C   0  0  0  0  0  0  0  0  0  0  0  0
   -0.7134   -3.2526   31.9078 C   0  0  0  0  0  0  0  0  0  0  0  0
   -1.7264   -3.2809   31.2593 O   0  0  0  0  0  0  0  0  0  0  0  0
   -0.2511   -4.4665   32.7210 C   0  0  0  0  0  0  0  0  0  0  0  0
   -0.4443   -5.7340   32.0471 N   0  0  0  0  0  0  0  0  0  0  0  0
   -0.9332   -6.8782   32.6006 C   0  0  0  0  0  0  0  0  0  0  0  0
   -0.9285   -7.8348   31.7008 N   0  0  0  0  0  0  0  0  0  0  0  0
   -0.3964   -7.3162   30.5440 N   0  0  0  0  0  0  0  0  0  0  0  0
   -0.0970   -6.0573   30.7725 C   0  0  0  0  0  0  0  0  0  0  0  0
   -1.1836   -0.5177   29.4871 C   0  0  0  0  0  0  0  0  0  0  0  0
   -1.0470    0.0250   28.0454 C   0  0  0  0  0  0  0  0  0  0  0  0
   -1.4623    2.4563   28.4901 N   0  0  0  0  0  0  0  0  0  0  0  0
   -1.9853    3.2469   27.3548 O   0  0  0  0  0  0  0  0  0  0  0  0
    0.4905    4.0270   24.9396 H   0  0  0  0  0  0  0  0  0  0  0  0
   -0.6487    5.1172   25.7530 H   0  0  0  0  0  0  0  0  0  0  0  0
   -0.5865    5.0389   23.9844 H   0  0  0  0  0  0  0  0  0  0  0  0
   -1.3349    2.6520   24.0802 H   0  0  0  0  0  0  0  0  0  0  0  0
   -3.0872    4.8773   25.1261 H   0  0  0  0  0  0  0  0  0  0  0  0
   -3.7628    3.2738   24.8155 H   0  0  0  0  0  0  0  0  0  0  0  0
   -3.0019    4.1954   23.5089 H   0  0  0  0  0  0  0  0  0  0  0  0
   -2.3856    1.7210   26.0640 H   0  0  0  0  0  0  0  0  0  0  0  0
    0.2981    2.6884   26.5982 H   0  0  0  0  0  0  0  0  0  0  0  0
    1.6679    1.5372   27.9314 H   0  0  0  0  0  0  0  0  0  0  0  0
    0.9438    2.5830   29.1196 H   0  0  0  0  0  0  0  0  0  0  0  0
    1.5934   -0.3325   29.2129 H   0  0  0  0  0  0  0  0  0  0  0  0
    1.8591    0.9087   30.4267 H   0  0  0  0  0  0  0  0  0  0  0  0
   -0.5883    1.0130   30.8030 H   0  0  0  0  0  0  0  0  0  0  0  0
    0.9094   -0.1672   32.3746 H   0  0  0  0  0  0  0  0  0  0  0  0
   -0.7809   -0.4370   32.3847 H   0  0  0  0  0  0  0  0  0  0  0  0
    2.1174   -1.4655   31.3218 H   0  0  0  0  0  0  0  0  0  0  0  0
    1.7646   -3.1335   31.2284 H   0  0  0  0  0  0  0  0  0  0  0  0
    0.9031   -2.1883   30.1074 H   0  0  0  0  0  0  0  0  0  0  0  0
   -0.8195   -4.4820   33.6566 H   0  0  0  0  0  0  0  0  0  0  0  0
    0.8141   -4.4078   32.9687 H   0  0  0  0  0  0  0  0  0  0  0  0
   -1.2765   -6.9667   33.6218 H   0  0  0  0  0  0  0  0  0  0  0  0
    0.3350   -5.3680   30.0603 H   0  0  0  0  0  0  0  0  0  0  0  0
   -2.1822   -0.2896   29.8749 H   0  0  0  0  0  0  0  0  0  0  0  0
   -1.1196   -1.6078   29.4360 H   0  0  0  0  0  0  0  0  0  0  0  0
   -0.3382   -0.6293   27.5233 H   0  0  0  0  0  0  0  0  0  0  0  0
   -2.0035   -0.1016   27.5264 H   0  0  0  0  0  0  0  0  0  0  0  0
   -2.3343    2.0016   28.7607 H   0  0  0  0  0  0  0  0  0  0  0  0
  1  2  1  0
  2  3  1  0
  2  4  1  0
  4  5  1  0
  5  6  1  0
  6  7  1  0
  7  8  1  0
  8  9  1  0
  9 10  1  0
 10 11  1  0
 11 12  1  0
 11 13  1  0
 13 14  2  0
 13 15  1  0
 15 16  1  0
 16 17  1  0
 17 18  2  0
 18 19  1  0
 19 20  2  0
  9 21  1  0
 21 22  1  0
  6 23  1  0
 23 24  1  0
 24  4  1  0
 22  6  1  0
 20 16  1  0
  1 25  1  0
  1 26  1  0
  1 27  1  0
  2 28  1  0
  3 29  1  0
  3 30  1  0
  3 31  1  0
  4 32  1  0
  5 33  1  0
  7 34  1  0
  7 35  1  0
  8 36  1  0
  8 37  1  0
  9 38  1  0
 10 39  1  0
 10 40  1  0
 12 41  1  0
 12 42  1  0
 12 43  1  0
 15 44  1  0
 15 45  1  0
 17 46  1  0
 20 47  1  0
 21 48  1  0
 21 49  1  0
 22 50  1  0
 22 51  1  0
 23 52  1  0
M  END
>  <Energy>  (15) 
75.274171297391263

>  <compound_id>  (15) 
3865

>  <target_id>  (15) 
1

>  <reference_id>  (15) 
135

>  <inspiration_ids>  (15) 
[135, 70]

>  <energy_score>  (15) 
42.81751690514699

>  <distance_score>  (15) 
1.2705770736059943

>  <path>  (15) 
/opt/xchem-fragalysis-2/maxwin/BulkDock/SCRATCH/505735/C3865-P135/C3865-P135.minimised.mol

>  <scratch_subdir>  (15) 
/opt/xchem-fragalysis-2/maxwin/BulkDock/SCRATCH/505735/C3865-P135

>  <fragmenstein_runtime>  (15) 
7.894522428512573

>  <fragmenstein_outcome>  (15) 
too moved

>  <fragmenstein_mode>  (15) 
expansion

>  <fragmenstein_error>  (15) 


$$$$
C3865-P70
     RDKit          3D

 52 54  0  0  0  0  0  0  0  0999 V2000
   -0.2860    3.7748   26.0758 C   0  0  0  0  0  0  0  0  0  0  0  0
   -1.5219    2.8923   25.8924 C   0  0  0  0  0  0  0  0  0  0  0  0
   -2.7683    3.7743   25.8846 C   0  0  0  0  0  0  0  0  0  0  0  0
   -1.6716    1.7814   26.9582 C   0  0  0  0  0  0  0  0  0  0  0  0
   -0.5971    0.8081   26.9404 N   0  0  0  0  0  0  0  0  0  0  0  0
   -0.4957    0.2937   28.3033 C   0  0  0  0  0  0  0  0  0  0  0  0
    0.9765    0.3846   28.7768 C   0  0  0  0  0  0  0  0  0  0  0  0
    1.3713   -0.6160   29.8730 C   0  0  0  0  0  0  0  0  0  0  0  0
    0.1822   -1.1234   30.7042 C   0  0  0  0  0  0  0  0  0  0  0  0
    0.6165   -1.8843   32.0095 C   0  0  0  0  0  0  0  0  0  0  0  0
    0.6389   -3.3700   32.3194 N   0  0  0  0  0  0  0  0  0  0  0  0
    1.6700   -3.3622   31.2343 C   0  0  0  0  0  0  0  0  0  0  0  0
   -0.3380   -4.3969   32.0681 C   0  0  0  0  0  0  0  0  0  0  0  0
   -1.3807   -4.3547   31.4683 O   0  0  0  0  0  0  0  0  0  0  0  0
    0.1300   -5.6608   32.7966 C   0  0  0  0  0  0  0  0  0  0  0  0
   -0.6082   -6.8502   32.4332 N   0  0  0  0  0  0  0  0  0  0  0  0
   -1.2092   -7.7158   33.2926 C   0  0  0  0  0  0  0  0  0  0  0  0
   -1.7376   -8.7094   32.6138 N   0  0  0  0  0  0  0  0  0  0  0  0
   -1.4770   -8.4853   31.2789 N   0  0  0  0  0  0  0  0  0  0  0  0
   -0.7534   -7.3904   31.1939 C   0  0  0  0  0  0  0  0  0  0  0  0
   -0.8988   -1.7615   29.8202 C   0  0  0  0  0  0  0  0  0  0  0  0
   -0.9664   -1.1672   28.3982 C   0  0  0  0  0  0  0  0  0  0  0  0
   -1.3320    1.1541   29.1321 N   0  0  0  0  0  0  0  0  0  0  0  0
   -1.6876    2.2943   28.2748 O   0  0  0  0  0  0  0  0  0  0  0  0
    0.6395    3.2033   25.9593 H   0  0  0  0  0  0  0  0  0  0  0  0
   -0.2732    4.2468   27.0639 H   0  0  0  0  0  0  0  0  0  0  0  0
   -0.2652    4.5721   25.3245 H   0  0  0  0  0  0  0  0  0  0  0  0
   -1.4446    2.4297   24.9039 H   0  0  0  0  0  0  0  0  0  0  0  0
   -2.8710    4.2916   26.8426 H   0  0  0  0  0  0  0  0  0  0  0  0
   -3.6708    3.1775   25.7182 H   0  0  0  0  0  0  0  0  0  0  0  0
   -2.7146    4.5272   25.0914 H   0  0  0  0  0  0  0  0  0  0  0  0
   -2.6210    1.2577   26.7830 H   0  0  0  0  0  0  0  0  0  0  0  0
    0.2593    1.3282   26.7707 H   0  0  0  0  0  0  0  0  0  0  0  0
    1.6622    0.2153   27.9339 H   0  0  0  0  0  0  0  0  0  0  0  0
    1.1981    1.4049   29.1206 H   0  0  0  0  0  0  0  0  0  0  0  0
    1.8742   -1.4563   29.3816 H   0  0  0  0  0  0  0  0  0  0  0  0
    2.1221   -0.1491   30.5219 H   0  0  0  0  0  0  0  0  0  0  0  0
   -0.2679   -0.2015   31.1046 H   0  0  0  0  0  0  0  0  0  0  0  0
    1.4859   -1.3945   32.4832 H   0  0  0  0  0  0  0  0  0  0  0  0
   -0.1912   -1.5967   32.7047 H   0  0  0  0  0  0  0  0  0  0  0  0
    1.2533   -3.3613   30.2221 H   0  0  0  0  0  0  0  0  0  0  0  0
    2.5442   -2.7106   31.3859 H   0  0  0  0  0  0  0  0  0  0  0  0
    2.1289   -4.3617   31.2803 H   0  0  0  0  0  0  0  0  0  0  0  0
    0.0095   -5.5004   33.8740 H   0  0  0  0  0  0  0  0  0  0  0  0
    1.1824   -5.8706   32.5862 H   0  0  0  0  0  0  0  0  0  0  0  0
   -1.2375   -7.5840   34.3651 H   0  0  0  0  0  0  0  0  0  0  0  0
   -0.3352   -6.9676   30.2905 H   0  0  0  0  0  0  0  0  0  0  0  0
   -1.8696   -1.6427   30.3159 H   0  0  0  0  0  0  0  0  0  0  0  0
   -0.7468   -2.8356   29.6998 H   0  0  0  0  0  0  0  0  0  0  0  0
   -0.3252   -1.7830   27.7543 H   0  0  0  0  0  0  0  0  0  0  0  0
   -1.9868   -1.2848   28.0104 H   0  0  0  0  0  0  0  0  0  0  0  0
   -2.2506    0.7302   29.2514 H   0  0  0  0  0  0  0  0  0  0  0  0
  1  2  1  0
  2  3  1  0
  2  4  1  0
  4  5  1  0
  5  6  1  0
  6  7  1  0
  7  8  1  0
  8  9  1  0
  9 10  1  0
 10 11  1  0
 11 12  1  0
 11 13  1  0
 13 14  2  0
 13 15  1  0
 15 16  1  0
 16 17  1  0
 17 18  2  0
 18 19  1  0
 19 20  2  0
  9 21  1  0
 21 22  1  0
  6 23  1  0
 23 24  1  0
 24  4  1  0
 22  6  1  0
 20 16  1  0
  1 25  1  0
  1 26  1  0
  1 27  1  0
  2 28  1  0
  3 29  1  0
  3 30  1  0
  3 31  1  0
  4 32  1  0
  5 33  1  0
  7 34  1  0
  7 35  1  0
  8 36  1  0
  8 37  1  0
  9 38  1  0
 10 39  1  0
 10 40  1  0
 12 41  1  0
 12 42  1  0
 12 43  1  0
 15 44  1  0
 15 45  1  0
 17 46  1  0
 20 47  1  0
 21 48  1  0
 21 49  1  0
 22 50  1  0
 22 51  1  0
 23 52  1  0
M  END
>  <Energy>  (16) 
72.828264767036089

>  <compound_id>  (16) 
3865

>  <target_id>  (16) 
1

>  <reference_id>  (16) 
70

>  <inspiration_ids>  (16) 
[135, 70]

>  <energy_score>  (16) 
40.3716103747895

>  <distance_score>  (16) 
1.3391239689469505

>  <path>  (16) 
/opt/xchem-fragalysis-2/maxwin/BulkDock/SCRATCH/505735/C3865-P70/C3865-P70.minimised.mol

>  <scratch_subdir>  (16) 
/opt/xchem-fragalysis-2/maxwin/BulkDock/SCRATCH/505735/C3865-P70

>  <fragmenstein_runtime>  (16) 
8.13369369506836

>  <fragmenstein_outcome>  (16) 
too moved

>  <fragmenstein_mode>  (16) 
expansion

>  <fragmenstein_error>  (16) 


$$$$
C883-P135
     RDKit          3D

 36 38  0  0  0  0  0  0  0  0999 V2000
    1.6901   -2.7655   32.2904 C   0  0  0  0  0  0  0  0  0  0  0  0
    0.3113   -2.7659   32.8950 N   0  0  0  0  0  0  0  0  0  0  0  0
    0.4132   -1.3010   32.4830 C   0  0  0  0  0  0  0  0  0  0  0  0
    0.2433   -0.8847   31.0237 C   0  0  0  0  0  0  0  0  0  0  0  0
    1.2715   -0.1727   30.3853 C   0  0  0  0  0  0  0  0  0  0  0  0
    1.1585    0.1859   29.0426 C   0  0  0  0  0  0  0  0  0  0  0  0
    0.0183   -0.1612   28.3243 C   0  0  0  0  0  0  0  0  0  0  0  0
   -1.0158   -0.8536   28.9438 C   0  0  0  0  0  0  0  0  0  0  0  0
   -0.9151   -1.1895   30.2930 C   0  0  0  0  0  0  0  0  0  0  0  0
   -0.5257   -3.8829   32.3398 C   0  0  0  0  0  0  0  0  0  0  0  0
   -1.2392   -3.9075   31.4057 O   0  0  0  0  0  0  0  0  0  0  0  0
   -0.3789   -5.1244   33.1547 C   0  0  0  0  0  0  0  0  0  0  0  0
   -0.2890   -5.0592   34.5003 C   0  0  0  0  0  0  0  0  0  0  0  0
   -0.4639   -6.2717   35.2839 C   0  0  0  0  0  0  0  0  0  0  0  0
   -0.8192   -7.4309   34.7004 C   0  0  0  0  0  0  0  0  0  0  0  0
   -0.9145   -7.5083   33.2836 C   0  0  0  0  0  0  0  0  0  0  0  0
   -1.2703   -8.4654   32.4542 N   0  0  0  0  0  0  0  0  0  0  0  0
   -1.0406   -8.0321   31.1717 N   0  0  0  0  0  0  0  0  0  0  0  0
   -0.5701   -6.8082   31.2408 C   0  0  0  0  0  0  0  0  0  0  0  0
   -0.1027   -6.0597   30.2142 N   0  0  0  0  0  0  0  0  0  0  0  0
   -0.5969   -6.3739   32.5590 N   0  0  0  0  0  0  0  0  0  0  0  0
    2.4470   -2.1165   32.7575 H   0  0  0  0  0  0  0  0  0  0  0  0
    2.0779   -3.7664   32.5404 H   0  0  0  0  0  0  0  0  0  0  0  0
    1.7092   -2.8007   31.1927 H   0  0  0  0  0  0  0  0  0  0  0  0
   -0.5084   -0.9050   32.9423 H   0  0  0  0  0  0  0  0  0  0  0  0
    1.1676   -0.7152   33.0380 H   0  0  0  0  0  0  0  0  0  0  0  0
    2.1740    0.1031   30.9257 H   0  0  0  0  0  0  0  0  0  0  0  0
    1.9589    0.7326   28.5507 H   0  0  0  0  0  0  0  0  0  0  0  0
   -0.0774    0.1132   27.2795 H   0  0  0  0  0  0  0  0  0  0  0  0
   -1.9012   -1.1272   28.3727 H   0  0  0  0  0  0  0  0  0  0  0  0
   -1.7527   -1.6982   30.7618 H   0  0  0  0  0  0  0  0  0  0  0  0
   -0.2250   -4.1168   35.0363 H   0  0  0  0  0  0  0  0  0  0  0  0
   -0.3828   -6.1945   36.3650 H   0  0  0  0  0  0  0  0  0  0  0  0
   -1.0099   -8.3155   35.2941 H   0  0  0  0  0  0  0  0  0  0  0  0
   -0.3115   -5.0562   30.2673 H   0  0  0  0  0  0  0  0  0  0  0  0
   -0.4400   -6.3679   29.3056 H   0  0  0  0  0  0  0  0  0  0  0  0
  1  2  1  0
  2  3  1  0
  3  4  1  0
  4  5  2  0
  5  6  1  0
  6  7  2  0
  7  8  1  0
  8  9  2  0
  2 10  1  0
 10 11  2  0
 10 12  1  0
 12 13  2  0
 13 14  1  0
 14 15  2  0
 15 16  1  0
 16 17  2  0
 17 18  1  0
 18 19  2  0
 19 20  1  0
 19 21  1  0
  9  4  1  0
 21 12  1  0
 21 16  1  0
  1 22  1  0
  1 23  1  0
  1 24  1  0
  3 25  1  0
  3 26  1  0
  5 27  1  0
  6 28  1  0
  7 29  1  0
  8 30  1  0
  9 31  1  0
 13 32  1  0
 14 33  1  0
 15 34  1  0
 20 35  1  0
 20 36  1  0
M  END
>  <Energy>  (17) 
109.31342986619865

>  <compound_id>  (17) 
883

>  <target_id>  (17) 
1

>  <reference_id>  (17) 
135

>  <inspiration_ids>  (17) 
[135, 72]

>  <energy_score>  (17) 
46.819395814479435

>  <distance_score>  (17) 
0.6583693300369364

>  <path>  (17) 
/opt/xchem-fragalysis-2/maxwin/BulkDock/SCRATCH/505735/C883-P135/C883-P135.minimised.mol

>  <scratch_subdir>  (17) 
/opt/xchem-fragalysis-2/maxwin/BulkDock/SCRATCH/505735/C883-P135

>  <fragmenstein_runtime>  (17) 
2.122488021850586

>  <fragmenstein_outcome>  (17) 
too contorted

>  <fragmenstein_mode>  (17) 
expansion

>  <fragmenstein_error>  (17) 


$$$$
C883-P72
     RDKit          3D

 36 38  0  0  0  0  0  0  0  0999 V2000
    1.6502   -2.8505   32.1698 C   0  0  0  0  0  0  0  0  0  0  0  0
    0.3011   -2.8055   32.8367 N   0  0  0  0  0  0  0  0  0  0  0  0
    0.4211   -1.3490   32.3955 C   0  0  0  0  0  0  0  0  0  0  0  0
    0.2424   -0.9452   30.9329 C   0  0  0  0  0  0  0  0  0  0  0  0
    1.2749   -0.2540   30.2786 C   0  0  0  0  0  0  0  0  0  0  0  0
    1.1633    0.0792   28.9284 C   0  0  0  0  0  0  0  0  0  0  0  0
    0.0195   -0.2713   28.2173 C   0  0  0  0  0  0  0  0  0  0  0  0
   -1.0227   -0.9343   28.8562 C   0  0  0  0  0  0  0  0  0  0  0  0
   -0.9222   -1.2473   30.2119 C   0  0  0  0  0  0  0  0  0  0  0  0
   -0.5886   -3.9087   32.3391 C   0  0  0  0  0  0  0  0  0  0  0  0
   -1.3446   -3.9292   31.4395 O   0  0  0  0  0  0  0  0  0  0  0  0
   -0.4147   -5.1486   33.1497 C   0  0  0  0  0  0  0  0  0  0  0  0
   -0.3044   -5.0757   34.4931 C   0  0  0  0  0  0  0  0  0  0  0  0
   -0.4296   -6.2895   35.2833 C   0  0  0  0  0  0  0  0  0  0  0  0
   -0.7584   -7.4618   34.7105 C   0  0  0  0  0  0  0  0  0  0  0  0
   -0.8942   -7.5443   33.2971 C   0  0  0  0  0  0  0  0  0  0  0  0
   -1.2679   -8.5061   32.4814 N   0  0  0  0  0  0  0  0  0  0  0  0
   -1.0986   -8.0676   31.1917 N   0  0  0  0  0  0  0  0  0  0  0  0
   -0.6366   -6.8395   31.2430 C   0  0  0  0  0  0  0  0  0  0  0  0
   -0.2178   -6.0896   30.1974 N   0  0  0  0  0  0  0  0  0  0  0  0
   -0.6227   -6.4038   32.5611 N   0  0  0  0  0  0  0  0  0  0  0  0
    2.4422   -2.2038   32.5783 H   0  0  0  0  0  0  0  0  0  0  0  0
    2.0304   -3.8510   32.4335 H   0  0  0  0  0  0  0  0  0  0  0  0
    1.6150   -2.9213   31.0738 H   0  0  0  0  0  0  0  0  0  0  0  0
   -0.4851   -0.9272   32.8625 H   0  0  0  0  0  0  0  0  0  0  0  0
    1.1988   -0.7766   32.9317 H   0  0  0  0  0  0  0  0  0  0  0  0
    2.1830    0.0202   30.8106 H   0  0  0  0  0  0  0  0  0  0  0  0
    1.9704    0.6054   28.4255 H   0  0  0  0  0  0  0  0  0  0  0  0
   -0.0720   -0.0264   27.1634 H   0  0  0  0  0  0  0  0  0  0  0  0
   -1.9137   -1.2081   28.2939 H   0  0  0  0  0  0  0  0  0  0  0  0
   -1.7647   -1.7382   30.6908 H   0  0  0  0  0  0  0  0  0  0  0  0
   -0.2458   -4.1293   35.0228 H   0  0  0  0  0  0  0  0  0  0  0  0
   -0.3167   -6.2097   36.3611 H   0  0  0  0  0  0  0  0  0  0  0  0
   -0.8970   -8.3534   35.3100 H   0  0  0  0  0  0  0  0  0  0  0  0
   -0.4175   -5.0854   30.2533 H   0  0  0  0  0  0  0  0  0  0  0  0
   -0.5913   -6.4041   29.3036 H   0  0  0  0  0  0  0  0  0  0  0  0
  1  2  1  0
  2  3  1  0
  3  4  1  0
  4  5  2  0
  5  6  1  0
  6  7  2  0
  7  8  1  0
  8  9  2  0
  2 10  1  0
 10 11  2  0
 10 12  1  0
 12 13  2  0
 13 14  1  0
 14 15  2  0
 15 16  1  0
 16 17  2  0
 17 18  1  0
 18 19  2  0
 19 20  1  0
 19 21  1  0
  9  4  1  0
 21 12  1  0
 21 16  1  0
  1 22  1  0
  1 23  1  0
  1 24  1  0
  3 25  1  0
  3 26  1  0
  5 27  1  0
  6 28  1  0
  7 29  1  0
  8 30  1  0
  9 31  1  0
 13 32  1  0
 14 33  1  0
 15 34  1  0
 20 35  1  0
 20 36  1  0
M  END
>  <Energy>  (18) 
108.92050067414793

>  <compound_id>  (18) 
883

>  <target_id>  (18) 
1

>  <reference_id>  (18) 
72

>  <inspiration_ids>  (18) 
[135, 72]

>  <energy_score>  (18) 
46.42646662242791

>  <distance_score>  (18) 
0.6446097488382909

>  <path>  (18) 
/opt/xchem-fragalysis-2/maxwin/BulkDock/SCRATCH/505735/C883-P72/C883-P72.minimised.mol

>  <scratch_subdir>  (18) 
/opt/xchem-fragalysis-2/maxwin/BulkDock/SCRATCH/505735/C883-P72

>  <fragmenstein_runtime>  (18) 
2.2198681831359863

>  <fragmenstein_outcome>  (18) 
too contorted

>  <fragmenstein_mode>  (18) 
expansion

>  <fragmenstein_error>  (18) 


$$$$
C3866-P135
     RDKit          3D

 49 51  0  0  0  0  0  0  0  0999 V2000
    3.5173   -1.8865   32.2828 C   0  0  0  0  0  0  0  0  0  0  0  0
    2.2032   -2.3877   31.7600 N   0  0  0  0  0  0  0  0  0  0  0  0
    2.7148   -1.6843   30.5317 C   0  0  0  0  0  0  0  0  0  0  0  0
    1.4433   -1.2114   29.8111 C   0  0  0  0  0  0  0  0  0  0  0  0
    1.1759    0.1617   29.7131 C   0  0  0  0  0  0  0  0  0  0  0  0
    0.0455    0.6134   29.0376 C   0  0  0  0  0  0  0  0  0  0  0  0
   -0.8471   -0.2994   28.4846 C   0  0  0  0  0  0  0  0  0  0  0  0
   -0.6226   -1.6652   28.6201 C   0  0  0  0  0  0  0  0  0  0  0  0
    0.5225   -2.1220   29.2698 C   0  0  0  0  0  0  0  0  0  0  0  0
    2.0256   -3.8650   32.0493 C   0  0  0  0  0  0  0  0  0  0  0  0
    2.3219   -4.8074   31.4096 O   0  0  0  0  0  0  0  0  0  0  0  0
    1.2456   -3.9152   33.3687 C   0  0  0  0  0  0  0  0  0  0  0  0
    0.2284   -4.9660   33.4030 N   0  0  0  0  0  0  0  0  0  0  0  0
   -0.5409   -5.1178   32.2003 C   0  0  0  0  0  0  0  0  0  0  0  0
   -1.7103   -3.5970   31.9466 Br  0  0  0  0  0  0  0  0  0  0  0  0
   -1.2474   -6.3720   32.3971 N   0  0  0  0  0  0  0  0  0  0  0  0
   -0.2199   -7.2016   33.0373 N   0  0  0  0  0  0  0  0  0  0  0  0
    0.4541   -6.2677   33.9847 C   0  0  0  0  0  0  0  0  0  0  0  0
    1.8535   -6.7710   34.1998 C   0  0  0  0  0  0  0  0  0  0  0  0
    2.5427   -5.9357   35.1987 C   0  0  0  0  0  0  0  0  0  0  0  0
    3.7419   -5.7014   35.0868 O   0  0  0  0  0  0  0  0  0  0  0  0
    1.8108   -5.4232   36.1957 O   0  0  0  0  0  0  0  0  0  0  0  0
    0.4047   -5.6965   36.3116 C   0  0  0  0  0  0  0  0  0  0  0  0
   -0.3310   -4.3738   36.5364 C   0  0  0  0  0  0  0  0  0  0  0  0
    0.2602   -6.5488   37.5706 C   0  0  0  0  0  0  0  0  0  0  0  0
   -0.2070   -6.3986   35.2361 O   0  0  0  0  0  0  0  0  0  0  0  0
    3.5301   -0.8022   32.4772 H   0  0  0  0  0  0  0  0  0  0  0  0
    4.4112   -2.2918   31.7786 H   0  0  0  0  0  0  0  0  0  0  0  0
    3.6021   -2.3117   33.2945 H   0  0  0  0  0  0  0  0  0  0  0  0
    3.3397   -0.7727   30.5764 H   0  0  0  0  0  0  0  0  0  0  0  0
    3.2071   -2.4209   29.8777 H   0  0  0  0  0  0  0  0  0  0  0  0
    1.8556    0.8942   30.1406 H   0  0  0  0  0  0  0  0  0  0  0  0
   -0.1461    1.6787   28.9391 H   0  0  0  0  0  0  0  0  0  0  0  0
   -1.7256    0.0492   27.9472 H   0  0  0  0  0  0  0  0  0  0  0  0
   -1.3344   -2.3705   28.1972 H   0  0  0  0  0  0  0  0  0  0  0  0
    0.6993   -3.1918   29.3405 H   0  0  0  0  0  0  0  0  0  0  0  0
    1.9542   -3.9216   34.1923 H   0  0  0  0  0  0  0  0  0  0  0  0
    0.7189   -2.9603   33.4954 H   0  0  0  0  0  0  0  0  0  0  0  0
    0.0290   -5.2058   31.2721 H   0  0  0  0  0  0  0  0  0  0  0  0
   -1.9534   -6.1567   33.1113 H   0  0  0  0  0  0  0  0  0  0  0  0
    0.4581   -7.4863   32.3263 H   0  0  0  0  0  0  0  0  0  0  0  0
    2.4241   -6.7281   33.2702 H   0  0  0  0  0  0  0  0  0  0  0  0
    1.8613   -7.7894   34.6033 H   0  0  0  0  0  0  0  0  0  0  0  0
    0.0369   -3.8654   37.4348 H   0  0  0  0  0  0  0  0  0  0  0  0
   -1.4107   -4.5311   36.6318 H   0  0  0  0  0  0  0  0  0  0  0  0
   -0.1807   -3.6766   35.7095 H   0  0  0  0  0  0  0  0  0  0  0  0
    0.6678   -7.5528   37.4042 H   0  0  0  0  0  0  0  0  0  0  0  0
    0.7995   -6.1130   38.4186 H   0  0  0  0  0  0  0  0  0  0  0  0
   -0.7882   -6.6616   37.8457 H   0  0  0  0  0  0  0  0  0  0  0  0
  1  2  1  0
  2  3  1  0
  3  4  1  0
  4  5  2  0
  5  6  1  0
  6  7  2  0
  7  8  1  0
  8  9  2  0
  2 10  1  0
 10 11  2  0
 10 12  1  0
 12 13  1  0
 13 14  1  0
 14 15  1  0
 14 16  1  0
 16 17  1  0
 17 18  1  0
 18 19  1  0
 19 20  1  0
 20 21  2  0
 20 22  1  0
 22 23  1  0
 23 24  1  0
 23 25  1  0
 23 26  1  0
  9  4  1  0
 18 13  1  0
 26 18  1  0
  1 27  1  0
  1 28  1  0
  1 29  1  0
  3 30  1  0
  3 31  1  0
  5 32  1  0
  6 33  1  0
  7 34  1  0
  8 35  1  0
  9 36  1  0
 12 37  1  0
 12 38  1  0
 14 39  1  0
 16 40  1  0
 17 41  1  0
 19 42  1  0
 19 43  1  0
 24 44  1  0
 24 45  1  0
 24 46  1  0
 25 47  1  0
 25 48  1  0
 25 49  1  0
M  END
>  <Energy>  (19) 
25.783274482187608

>  <compound_id>  (19) 
3866

>  <target_id>  (19) 
1

>  <reference_id>  (19) 
135

>  <inspiration_ids>  (19) 
[135, 78]

>  <energy_score>  (19) 
31.924786134739584

>  <distance_score>  (19) 
2.2270022173278283

>  <path>  (19) 
/opt/xchem-fragalysis-2/maxwin/BulkDock/SCRATCH/505735/C3866-P135/C3866-P135.minimised.mol

>  <scratch_subdir>  (19) 
/opt/xchem-fragalysis-2/maxwin/BulkDock/SCRATCH/505735/C3866-P135

>  <fragmenstein_runtime>  (19) 
4.434907913208008

>  <fragmenstein_outcome>  (19) 
too moved

>  <fragmenstein_mode>  (19) 
expansion

>  <fragmenstein_error>  (19) 


$$$$
C3866-P78
     RDKit          3D

 49 51  0  0  0  0  0  0  0  0999 V2000
    2.6510   -0.8056   33.1011 C   0  0  0  0  0  0  0  0  0  0  0  0
    1.5856   -1.5145   32.3115 N   0  0  0  0  0  0  0  0  0  0  0  0
    2.1664   -0.6416   31.2307 C   0  0  0  0  0  0  0  0  0  0  0  0
    1.1079   -0.6122   30.1185 C   0  0  0  0  0  0  0  0  0  0  0  0
    0.5943    0.6173   29.6896 C   0  0  0  0  0  0  0  0  0  0  0  0
   -0.3553    0.6704   28.6714 C   0  0  0  0  0  0  0  0  0  0  0  0
   -0.8246   -0.5016   28.0878 C   0  0  0  0  0  0  0  0  0  0  0  0
   -0.3397   -1.7309   28.5151 C   0  0  0  0  0  0  0  0  0  0  0  0
    0.6353   -1.7860   29.5092 C   0  0  0  0  0  0  0  0  0  0  0  0
    1.6593   -3.0116   32.5142 C   0  0  0  0  0  0  0  0  0  0  0  0
    2.2548   -3.8321   31.9177 O   0  0  0  0  0  0  0  0  0  0  0  0
    0.6730   -3.3279   33.6515 C   0  0  0  0  0  0  0  0  0  0  0  0
   -0.0674   -4.5768   33.4523 N   0  0  0  0  0  0  0  0  0  0  0  0
   -0.5768   -4.7949   32.1325 C   0  0  0  0  0  0  0  0  0  0  0  0
   -1.8791   -3.4259   31.7075 Br  0  0  0  0  0  0  0  0  0  0  0  0
   -1.1283   -6.1399   32.2099 N   0  0  0  0  0  0  0  0  0  0  0  0
   -0.0962   -6.8542   32.9879 N   0  0  0  0  0  0  0  0  0  0  0  0
    0.4368   -5.8399   33.9506 C   0  0  0  0  0  0  0  0  0  0  0  0
    1.9492   -5.9095   34.0091 C   0  0  0  0  0  0  0  0  0  0  0  0
    2.3278   -6.9279   34.9979 C   0  0  0  0  0  0  0  0  0  0  0  0
    3.1404   -7.7985   34.7174 O   0  0  0  0  0  0  0  0  0  0  0  0
    1.8296   -6.7672   36.2341 O   0  0  0  0  0  0  0  0  0  0  0  0
    0.6136   -6.0300   36.3543 C   0  0  0  0  0  0  0  0  0  0  0  0
    0.8631   -4.5952   36.8113 C   0  0  0  0  0  0  0  0  0  0  0  0
   -0.1634   -6.7231   37.4691 C   0  0  0  0  0  0  0  0  0  0  0  0
   -0.1958   -6.0972   35.1951 O   0  0  0  0  0  0  0  0  0  0  0  0
    2.4124    0.2444   33.3315 H   0  0  0  0  0  0  0  0  0  0  0  0
    3.6890   -0.9929   32.7795 H   0  0  0  0  0  0  0  0  0  0  0  0
    2.6238   -1.2777   34.0953 H   0  0  0  0  0  0  0  0  0  0  0  0
    2.3473    0.4259   31.4450 H   0  0  0  0  0  0  0  0  0  0  0  0
    3.0557   -1.1137   30.7830 H   0  0  0  0  0  0  0  0  0  0  0  0
    0.9296    1.5512   30.1333 H   0  0  0  0  0  0  0  0  0  0  0  0
   -0.7486    1.6280   28.3383 H   0  0  0  0  0  0  0  0  0  0  0  0
   -1.5745   -0.4655   27.2999 H   0  0  0  0  0  0  0  0  0  0  0  0
   -0.7203   -2.6443   28.0650 H   0  0  0  0  0  0  0  0  0  0  0  0
    1.0281   -2.7560   29.7984 H   0  0  0  0  0  0  0  0  0  0  0  0
   -0.0525   -2.5101   33.7388 H   0  0  0  0  0  0  0  0  0  0  0  0
    1.2248   -3.2925   34.5869 H   0  0  0  0  0  0  0  0  0  0  0  0
    0.1605   -4.7729   31.3251 H   0  0  0  0  0  0  0  0  0  0  0  0
   -1.9469   -6.0532   32.8188 H   0  0  0  0  0  0  0  0  0  0  0  0
    0.6496   -7.1574   32.3583 H   0  0  0  0  0  0  0  0  0  0  0  0
    2.4472   -4.9974   34.3479 H   0  0  0  0  0  0  0  0  0  0  0  0
    2.3932   -6.1475   33.0356 H   0  0  0  0  0  0  0  0  0  0  0  0
    1.7493   -4.1708   36.3353 H   0  0  0  0  0  0  0  0  0  0  0  0
    1.0934   -4.5560   37.8830 H   0  0  0  0  0  0  0  0  0  0  0  0
    0.0009   -3.9490   36.6203 H   0  0  0  0  0  0  0  0  0  0  0  0
   -0.4134   -7.7461   37.1668 H   0  0  0  0  0  0  0  0  0  0  0  0
    0.4214   -6.7963   38.3927 H   0  0  0  0  0  0  0  0  0  0  0  0
   -1.0987   -6.1976   37.6799 H   0  0  0  0  0  0  0  0  0  0  0  0
  1  2  1  0
  2  3  1  0
  3  4  1  0
  4  5  2  0
  5  6  1  0
  6  7  2  0
  7  8  1  0
  8  9  2  0
  2 10  1  0
 10 11  2  0
 10 12  1  0
 12 13  1  0
 13 14  1  0
 14 15  1  0
 14 16  1  0
 16 17  1  0
 17 18  1  0
 18 19  1  0
 19 20  1  0
 20 21  2  0
 20 22  1  0
 22 23  1  0
 23 24  1  0
 23 25  1  0
 23 26  1  0
  9  4  1  0
 18 13  1  0
 26 18  1  0
  1 27  1  0
  1 28  1  0
  1 29  1  0
  3 30  1  0
  3 31  1  0
  5 32  1  0
  6 33  1  0
  7 34  1  0
  8 35  1  0
  9 36  1  0
 12 37  1  0
 12 38  1  0
 14 39  1  0
 16 40  1  0
 17 41  1  0
 19 42  1  0
 19 43  1  0
 24 44  1  0
 24 45  1  0
 24 46  1  0
 25 47  1  0
 25 48  1  0
 25 49  1  0
M  END
>  <Energy>  (20) 
27.537918628664539

>  <compound_id>  (20) 
3866

>  <target_id>  (20) 
1

>  <reference_id>  (20) 
78

>  <inspiration_ids>  (20) 
[135, 78]

>  <energy_score>  (20) 
33.6794302812153

>  <distance_score>  (20) 
2.392661625605453

>  <path>  (20) 
/opt/xchem-fragalysis-2/maxwin/BulkDock/SCRATCH/505735/C3866-P78/C3866-P78.minimised.mol

>  <scratch_subdir>  (20) 
/opt/xchem-fragalysis-2/maxwin/BulkDock/SCRATCH/505735/C3866-P78

>  <fragmenstein_runtime>  (20) 
4.783856153488159

>  <fragmenstein_outcome>  (20) 
too moved

>  <fragmenstein_mode>  (20) 
expansion

>  <fragmenstein_error>  (20) 


$$$$
C3216-P135
     RDKit          3D

 33 35  0  0  0  0  0  0  0  0999 V2000
    1.6802   -2.6927   32.3701 C   0  0  0  0  0  0  0  0  0  0  0  0
    0.2462   -2.8348   32.8021 N   0  0  0  0  0  0  0  0  0  0  0  0
    0.2647   -1.3520   32.4489 C   0  0  0  0  0  0  0  0  0  0  0  0
    0.1594   -0.9042   30.9954 C   0  0  0  0  0  0  0  0  0  0  0  0
    1.1801   -0.1219   30.4335 C   0  0  0  0  0  0  0  0  0  0  0  0
    1.1166    0.2718   29.0974 C   0  0  0  0  0  0  0  0  0  0  0  0
    0.0323   -0.1077   28.3116 C   0  0  0  0  0  0  0  0  0  0  0  0
   -0.9943   -0.8714   28.8553 C   0  0  0  0  0  0  0  0  0  0  0  0
   -0.9419   -1.2468   30.1963 C   0  0  0  0  0  0  0  0  0  0  0  0
   -0.4154   -3.9955   32.1171 C   0  0  0  0  0  0  0  0  0  0  0  0
   -1.0074   -4.0434   31.1043 O   0  0  0  0  0  0  0  0  0  0  0  0
   -0.3530   -5.2278   32.9573 C   0  0  0  0  0  0  0  0  0  0  0  0
   -0.2291   -5.2023   34.3038 C   0  0  0  0  0  0  0  0  0  0  0  0
   -0.3776   -6.3130   35.1296 N   0  0  0  0  0  0  0  0  0  0  0  0
   -0.7723   -7.4290   34.5749 C   0  0  0  0  0  0  0  0  0  0  0  0
   -0.9215   -7.5369   33.1573 C   0  0  0  0  0  0  0  0  0  0  0  0
   -1.3022   -8.5460   32.4134 N   0  0  0  0  0  0  0  0  0  0  0  0
   -1.1722   -8.1571   31.0980 N   0  0  0  0  0  0  0  0  0  0  0  0
   -0.7372   -6.9156   31.0976 C   0  0  0  0  0  0  0  0  0  0  0  0
   -0.6375   -6.4561   32.3805 N   0  0  0  0  0  0  0  0  0  0  0  0
    1.8328   -2.6543   31.2830 H   0  0  0  0  0  0  0  0  0  0  0  0
    2.1178   -3.6752   32.6115 H   0  0  0  0  0  0  0  0  0  0  0  0
    2.3174   -2.0178   32.9619 H   0  0  0  0  0  0  0  0  0  0  0  0
    0.9213   -0.7200   33.0733 H   0  0  0  0  0  0  0  0  0  0  0  0
   -0.7164   -1.0477   32.8527 H   0  0  0  0  0  0  0  0  0  0  0  0
    2.0378    0.1827   31.0283 H   0  0  0  0  0  0  0  0  0  0  0  0
    1.9114    0.8727   28.6634 H   0  0  0  0  0  0  0  0  0  0  0  0
   -0.0240    0.1955   27.2721 H   0  0  0  0  0  0  0  0  0  0  0  0
   -1.8339   -1.1743   28.2318 H   0  0  0  0  0  0  0  0  0  0  0  0
   -1.7687   -1.8228   30.6033 H   0  0  0  0  0  0  0  0  0  0  0  0
   -0.0870   -4.2652   34.8381 H   0  0  0  0  0  0  0  0  0  0  0  0
   -0.9549   -8.2995   35.2179 H   0  0  0  0  0  0  0  0  0  0  0  0
   -0.5033   -6.3205   30.2261 H   0  0  0  0  0  0  0  0  0  0  0  0
  1  2  1  0
  2  3  1  0
  3  4  1  0
  4  5  2  0
  5  6  1  0
  6  7  2  0
  7  8  1  0
  8  9  2  0
  2 10  1  0
 10 11  2  0
 10 12  1  0
 12 13  2  0
 13 14  1  0
 14 15  2  0
 15 16  1  0
 16 17  2  0
 17 18  1  0
 18 19  2  0
 19 20  1  0
  9  4  1  0
 20 12  1  0
 20 16  1  0
  1 21  1  0
  1 22  1  0
  1 23  1  0
  3 24  1  0
  3 25  1  0
  5 26  1  0
  6 27  1  0
  7 28  1  0
  8 29  1  0
  9 30  1  0
 13 31  1  0
 15 32  1  0
 19 33  1  0
M  END
>  <Energy>  (21) 
104.27296527446329

>  <compound_id>  (21) 
3216

>  <target_id>  (21) 
1

>  <reference_id>  (21) 
135

>  <inspiration_ids>  (21) 
[135, 105]

>  <energy_score>  (21) 
71.12154285121912

>  <distance_score>  (21) 
0.6245320791590179

>  <path>  (21) 
/opt/xchem-fragalysis-2/maxwin/BulkDock/SCRATCH/505735/C3216-P135/C3216-P135.minimised.mol

>  <scratch_subdir>  (21) 
/opt/xchem-fragalysis-2/maxwin/BulkDock/SCRATCH/505735/C3216-P135

>  <fragmenstein_runtime>  (21) 
2.4075729846954346

>  <fragmenstein_outcome>  (21) 
too contorted

>  <fragmenstein_mode>  (21) 
expansion

>  <fragmenstein_error>  (21) 


$$$$
C3216-P105
     RDKit          3D

 33 35  0  0  0  0  0  0  0  0999 V2000
    1.6191   -2.9053   32.0198 C   0  0  0  0  0  0  0  0  0  0  0  0
    0.2944   -2.8769   32.7346 N   0  0  0  0  0  0  0  0  0  0  0  0
    0.3981   -1.4100   32.3216 C   0  0  0  0  0  0  0  0  0  0  0  0
    0.1915   -0.9699   30.8745 C   0  0  0  0  0  0  0  0  0  0  0  0
    1.2074   -0.2537   30.2209 C   0  0  0  0  0  0  0  0  0  0  0  0
    1.0722    0.1068   28.8801 C   0  0  0  0  0  0  0  0  0  0  0  0
   -0.0794   -0.2403   28.1794 C   0  0  0  0  0  0  0  0  0  0  0  0
   -1.1060   -0.9264   28.8195 C   0  0  0  0  0  0  0  0  0  0  0  0
   -0.9813   -1.2673   30.1659 C   0  0  0  0  0  0  0  0  0  0  0  0
   -0.6109   -3.9691   32.2450 C   0  0  0  0  0  0  0  0  0  0  0  0
   -1.3974   -3.9708   31.3731 O   0  0  0  0  0  0  0  0  0  0  0  0
   -0.4371   -5.2129   33.0387 C   0  0  0  0  0  0  0  0  0  0  0  0
   -0.2676   -5.1912   34.3783 C   0  0  0  0  0  0  0  0  0  0  0  0
   -0.3357   -6.3164   35.1933 N   0  0  0  0  0  0  0  0  0  0  0  0
   -0.6880   -7.4470   34.6358 C   0  0  0  0  0  0  0  0  0  0  0  0
   -0.8955   -7.5441   33.2228 C   0  0  0  0  0  0  0  0  0  0  0  0
   -1.2887   -8.5500   32.4797 N   0  0  0  0  0  0  0  0  0  0  0  0
   -1.2517   -8.1300   31.1668 N   0  0  0  0  0  0  0  0  0  0  0  0
   -0.8540   -6.8756   31.1675 C   0  0  0  0  0  0  0  0  0  0  0  0
   -0.6945   -6.4406   32.4526 N   0  0  0  0  0  0  0  0  0  0  0  0
    2.0101   -3.9094   32.2527 H   0  0  0  0  0  0  0  0  0  0  0  0
    2.4238   -2.2636   32.4110 H   0  0  0  0  0  0  0  0  0  0  0  0
    1.5455   -2.9577   30.9245 H   0  0  0  0  0  0  0  0  0  0  0  0
    1.1868   -0.8506   32.8556 H   0  0  0  0  0  0  0  0  0  0  0  0
   -0.4993   -1.0021   32.8169 H   0  0  0  0  0  0  0  0  0  0  0  0
    2.1209    0.0173   30.7450 H   0  0  0  0  0  0  0  0  0  0  0  0
    1.8666    0.6501   28.3755 H   0  0  0  0  0  0  0  0  0  0  0  0
   -0.1893    0.0234   27.1321 H   0  0  0  0  0  0  0  0  0  0  0  0
   -2.0026   -1.2011   28.2662 H   0  0  0  0  0  0  0  0  0  0  0  0
   -1.8107   -1.7799   30.6446 H   0  0  0  0  0  0  0  0  0  0  0  0
   -0.1522   -4.2493   34.9117 H   0  0  0  0  0  0  0  0  0  0  0  0
   -0.7931   -8.3319   35.2760 H   0  0  0  0  0  0  0  0  0  0  0  0
   -0.6949   -6.2525   30.2990 H   0  0  0  0  0  0  0  0  0  0  0  0
  1  2  1  0
  2  3  1  0
  3  4  1  0
  4  5  2  0
  5  6  1  0
  6  7  2  0
  7  8  1  0
  8  9  2  0
  2 10  1  0
 10 11  2  0
 10 12  1  0
 12 13  2  0
 13 14  1  0
 14 15  2  0
 15 16  1  0
 16 17  2  0
 17 18  1  0
 18 19  2  0
 19 20  1  0
  9  4  1  0
 20 12  1  0
 20 16  1  0
  1 21  1  0
  1 22  1  0
  1 23  1  0
  3 24  1  0
  3 25  1  0
  5 26  1  0
  6 27  1  0
  7 28  1  0
  8 29  1  0
  9 30  1  0
 13 31  1  0
 15 32  1  0
 19 33  1  0
M  END
>  <Energy>  (22) 
104.32247607341844

>  <compound_id>  (22) 
3216

>  <target_id>  (22) 
1

>  <reference_id>  (22) 
105

>  <inspiration_ids>  (22) 
[135, 105]

>  <energy_score>  (22) 
71.17105365017298

>  <distance_score>  (22) 
0.6473856445666176

>  <path>  (22) 
/opt/xchem-fragalysis-2/maxwin/BulkDock/SCRATCH/505735/C3216-P105/C3216-P105.minimised.mol

>  <scratch_subdir>  (22) 
/opt/xchem-fragalysis-2/maxwin/BulkDock/SCRATCH/505735/C3216-P105

>  <fragmenstein_runtime>  (22) 
1.883641004562378

>  <fragmenstein_outcome>  (22) 
too contorted

>  <fragmenstein_mode>  (22) 
expansion

>  <fragmenstein_error>  (22) 


$$$$
C3901-P135
     RDKit          3D

 61 63  0  0  0  0  0  0  0  0999 V2000
   -6.5914   -9.3493   28.9676 C   0  0  0  0  0  0  0  0  0  0  0  0
   -5.1951   -8.1128   29.1914 C   0  0  0  0  0  0  0  0  0  0  0  0
   -3.7708   -8.3738   30.7774 C   0  0  0  0  0  0  0  0  0  0  0  0
   -1.9675   -8.2368   31.4220 C   0  0  0  0  0  0  0  0  0  0  0  0
   -0.8929   -8.1921   30.1919 C   0  0  0  0  0  0  0  0  0  0  0  0
   -0.1751   -9.4944   29.7513 C   0  0  0  0  0  0  0  0  0  0  0  0
   -1.0102   -9.8247   28.6734 N   0  0  0  0  0  0  0  0  0  0  0  0
   -1.9504  -11.0853   28.8402 C   0  0  0  0  0  0  0  0  0  0  0  0
   -1.4741  -11.5029   30.0461 N   0  0  0  0  0  0  0  0  0  0  0  0
   -0.2684  -10.9451   30.5297 C   0  0  0  0  0  0  0  0  0  0  0  0
    2.2730  -12.3449   30.9867 I   0  0  0  0  0  0  0  0  0  0  0  0
   -1.3410   -7.1533   32.2987 N   0  0  0  0  0  0  0  0  0  0  0  0
   -1.4821   -7.1493   33.7492 C   0  0  0  0  0  0  0  0  0  0  0  0
   -0.3553   -6.3392   34.2690 N   0  0  0  0  0  0  0  0  0  0  0  0
   -0.6641   -4.9336   34.6343 C   0  0  0  0  0  0  0  0  0  0  0  0
   -0.9770   -3.9468   33.4397 C   0  0  0  0  0  0  0  0  0  0  0  0
   -1.5795   -4.3045   32.4604 O   0  0  0  0  0  0  0  0  0  0  0  0
   -0.4410   -2.6554   33.7881 N   0  0  0  0  0  0  0  0  0  0  0  0
    0.9789   -2.5367   33.3052 C   0  0  0  0  0  0  0  0  0  0  0  0
   -0.5619   -1.3062   33.0876 C   0  0  0  0  0  0  0  0  0  0  0  0
   -0.4406   -1.1132   31.5760 C   0  0  0  0  0  0  0  0  0  0  0  0
    0.5190   -0.2217   31.0622 C   0  0  0  0  0  0  0  0  0  0  0  0
    0.6460   -0.0234   29.6852 C   0  0  0  0  0  0  0  0  0  0  0  0
   -0.1863   -0.7077   28.8039 C   0  0  0  0  0  0  0  0  0  0  0  0
   -1.1488   -1.5836   29.2972 C   0  0  0  0  0  0  0  0  0  0  0  0
   -1.2829   -1.7766   30.6743 C   0  0  0  0  0  0  0  0  0  0  0  0
    0.6577   -6.3577   33.2461 C   0  0  0  0  0  0  0  0  0  0  0  0
    0.1717   -7.3141   32.2887 N   0  0  0  0  0  0  0  0  0  0  0  0
   -7.6721   -9.3173   28.9216 H   0  0  0  0  0  0  0  0  0  0  0  0
   -6.5065  -10.2502   29.5749 H   0  0  0  0  0  0  0  0  0  0  0  0
   -6.6040   -9.3785   27.8710 H   0  0  0  0  0  0  0  0  0  0  0  0
   -4.2346   -7.9049   28.6818 H   0  0  0  0  0  0  0  0  0  0  0  0
   -5.1776   -8.1811   28.0804 H   0  0  0  0  0  0  0  0  0  0  0  0
   -3.2127   -7.5567   30.2938 H   0  0  0  0  0  0  0  0  0  0  0  0
   -4.3198   -8.3904   31.7171 H   0  0  0  0  0  0  0  0  0  0  0  0
   -1.8613   -9.1598   31.9803 H   0  0  0  0  0  0  0  0  0  0  0  0
   -0.0863   -7.4540   30.2662 H   0  0  0  0  0  0  0  0  0  0  0  0
   -1.3842   -7.6668   29.3568 H   0  0  0  0  0  0  0  0  0  0  0  0
    0.7958   -9.1912   29.3518 H   0  0  0  0  0  0  0  0  0  0  0  0
   -0.4871   -9.8456   27.8201 H   0  0  0  0  0  0  0  0  0  0  0  0
   -2.0643  -11.5570   27.8562 H   0  0  0  0  0  0  0  0  0  0  0  0
   -2.9827  -11.3302   29.1013 H   0  0  0  0  0  0  0  0  0  0  0  0
   -1.7078  -12.4771   30.1470 H   0  0  0  0  0  0  0  0  0  0  0  0
   -0.5425  -10.3832   31.4009 H   0  0  0  0  0  0  0  0  0  0  0  0
   -2.4130   -6.8395   34.1699 H   0  0  0  0  0  0  0  0  0  0  0  0
   -1.3413   -8.1634   34.1381 H   0  0  0  0  0  0  0  0  0  0  0  0
    0.2149   -4.5565   35.1728 H   0  0  0  0  0  0  0  0  0  0  0  0
   -1.4609   -4.8966   35.3803 H   0  0  0  0  0  0  0  0  0  0  0  0
    1.1184   -2.8201   32.2527 H   0  0  0  0  0  0  0  0  0  0  0  0
    1.5183   -3.3407   33.8283 H   0  0  0  0  0  0  0  0  0  0  0  0
    1.5434   -1.6475   33.6258 H   0  0  0  0  0  0  0  0  0  0  0  0
   -0.0633   -0.5068   33.6632 H   0  0  0  0  0  0  0  0  0  0  0  0
   -1.6225   -1.0698   33.2745 H   0  0  0  0  0  0  0  0  0  0  0  0
    1.1758    0.3294   31.7313 H   0  0  0  0  0  0  0  0  0  0  0  0
    1.3889    0.6684   29.2970 H   0  0  0  0  0  0  0  0  0  0  0  0
   -0.0988   -0.5568   27.7309 H   0  0  0  0  0  0  0  0  0  0  0  0
   -1.8020   -2.1117   28.6037 H   0  0  0  0  0  0  0  0  0  0  0  0
   -2.0574   -2.4497   31.0314 H   0  0  0  0  0  0  0  0  0  0  0  0
    0.8509   -5.4146   32.7281 H   0  0  0  0  0  0  0  0  0  0  0  0
    1.6166   -6.6813   33.6656 H   0  0  0  0  0  0  0  0  0  0  0  0
    0.3756   -8.2210   32.6860 H   0  0  0  0  0  0  0  0  0  0  0  0
  1  2  1  0
  2  3  1  0
  3  4  1  0
  4  5  1  0
  5  6  1  0
  6  7  1  0
  7  8  1  0
  8  9  1  0
  9 10  1  0
 10 11  1  0
  4 12  1  0
 12 13  1  0
 13 14  1  0
 14 15  1  0
 15 16  1  0
 16 17  2  0
 16 18  1  0
 18 19  1  0
 18 20  1  0
 20 21  1  0
 21 22  2  0
 22 23  1  0
 23 24  2  0
 24 25  1  0
 25 26  2  0
 14 27  1  0
 27 28  1  0
 10  6  1  0
 28 12  1  0
 26 21  1  0
  1 29  1  0
  1 30  1  0
  1 31  1  0
  2 32  1  0
  2 33  1  0
  3 34  1  0
  3 35  1  0
  4 36  1  0
  5 37  1  0
  5 38  1  0
  6 39  1  0
  7 40  1  0
  8 41  1  0
  8 42  1  0
  9 43  1  0
 10 44  1  0
 13 45  1  0
 13 46  1  0
 15 47  1  0
 15 48  1  0
 19 49  1  0
 19 50  1  0
 19 51  1  0
 20 52  1  0
 20 53  1  0
 22 54  1  0
 23 55  1  0
 24 56  1  0
 25 57  1  0
 26 58  1  0
 27 59  1  0
 27 60  1  0
 28 61  1  0
M  END
>  <Energy>  (23) 
671.75046136476624

>  <compound_id>  (23) 
3901

>  <target_id>  (23) 
1

>  <reference_id>  (23) 
135

>  <inspiration_ids>  (23) 
[135, 116]

>  <energy_score>  (23) 
537.7657847056771

>  <distance_score>  (23) 
1.8226355289996348

>  <path>  (23) 
/opt/xchem-fragalysis-2/maxwin/BulkDock/SCRATCH/505735/C3901-P135/C3901-P135.minimised.mol

>  <scratch_subdir>  (23) 
/opt/xchem-fragalysis-2/maxwin/BulkDock/SCRATCH/505735/C3901-P135

>  <fragmenstein_runtime>  (23) 
13.204524993896484

>  <fragmenstein_outcome>  (23) 
too moved

>  <fragmenstein_mode>  (23) 
expansion

>  <fragmenstein_error>  (23) 


$$$$
C3901-P116
     RDKit          3D

 61 63  0  0  0  0  0  0  0  0999 V2000
   -6.5275   -9.1879   28.7798 C   0  0  0  0  0  0  0  0  0  0  0  0
   -5.0227   -8.0599   28.9059 C   0  0  0  0  0  0  0  0  0  0  0  0
   -3.2011   -7.6635   29.8100 C   0  0  0  0  0  0  0  0  0  0  0  0
   -1.7201   -8.3341   30.8663 C   0  0  0  0  0  0  0  0  0  0  0  0
   -0.5777   -9.1412   30.0715 C   0  0  0  0  0  0  0  0  0  0  0  0
   -0.2114  -10.5006   29.3151 C   0  0  0  0  0  0  0  0  0  0  0  0
   -0.6632  -10.7574   27.9503 N   0  0  0  0  0  0  0  0  0  0  0  0
   -1.0569  -12.1495   27.8623 C   0  0  0  0  0  0  0  0  0  0  0  0
   -1.4609  -12.4866   29.2122 N   0  0  0  0  0  0  0  0  0  0  0  0
   -0.4874  -11.7988   30.0634 C   0  0  0  0  0  0  0  0  0  0  0  0
    1.1989  -13.1313   30.2163 I   0  0  0  0  0  0  0  0  0  0  0  0
   -0.9161   -7.3975   31.7205 N   0  0  0  0  0  0  0  0  0  0  0  0
   -1.4164   -6.1948   32.3169 C   0  0  0  0  0  0  0  0  0  0  0  0
   -0.2735   -5.6690   33.0689 N   0  0  0  0  0  0  0  0  0  0  0  0
   -0.6354   -4.5835   33.9980 C   0  0  0  0  0  0  0  0  0  0  0  0
   -1.0901   -3.3103   33.1941 C   0  0  0  0  0  0  0  0  0  0  0  0
   -1.8532   -3.4312   32.2688 O   0  0  0  0  0  0  0  0  0  0  0  0
   -0.3948   -2.1501   33.6860 N   0  0  0  0  0  0  0  0  0  0  0  0
    0.9444   -2.0318   33.0261 C   0  0  0  0  0  0  0  0  0  0  0  0
   -0.4864   -0.6781   33.2673 C   0  0  0  0  0  0  0  0  0  0  0  0
   -0.4538   -0.2428   31.7923 C   0  0  0  0  0  0  0  0  0  0  0  0
    0.5561    0.6283   31.3429 C   0  0  0  0  0  0  0  0  0  0  0  0
    0.6773    0.9426   29.9864 C   0  0  0  0  0  0  0  0  0  0  0  0
   -0.2114    0.3998   29.0617 C   0  0  0  0  0  0  0  0  0  0  0  0
   -1.2351   -0.4381   29.4949 C   0  0  0  0  0  0  0  0  0  0  0  0
   -1.3662   -0.7438   30.8523 C   0  0  0  0  0  0  0  0  0  0  0  0
    0.2249   -6.8738   33.6796 C   0  0  0  0  0  0  0  0  0  0  0  0
   -0.3310   -8.0048   32.8974 N   0  0  0  0  0  0  0  0  0  0  0  0
   -6.5388   -9.3128   27.6816 H   0  0  0  0  0  0  0  0  0  0  0  0
   -6.6417  -10.0176   29.4901 H   0  0  0  0  0  0  0  0  0  0  0  0
   -7.5931   -9.0905   28.7016 H   0  0  0  0  0  0  0  0  0  0  0  0
   -5.7572   -7.2319   29.0268 H   0  0  0  0  0  0  0  0  0  0  0  0
   -4.7260   -8.1193   27.8493 H   0  0  0  0  0  0  0  0  0  0  0  0
   -2.5174   -7.2105   29.0890 H   0  0  0  0  0  0  0  0  0  0  0  0
   -3.4709   -7.8561   30.8613 H   0  0  0  0  0  0  0  0  0  0  0  0
   -2.1786   -9.0517   31.5807 H   0  0  0  0  0  0  0  0  0  0  0  0
    0.0733   -9.3412   30.9173 H   0  0  0  0  0  0  0  0  0  0  0  0
   -0.1773   -8.3482   29.4559 H   0  0  0  0  0  0  0  0  0  0  0  0
    0.8712  -10.4544   29.1756 H   0  0  0  0  0  0  0  0  0  0  0  0
    0.0607  -10.6184   27.2521 H   0  0  0  0  0  0  0  0  0  0  0  0
   -0.2289  -12.7768   27.5147 H   0  0  0  0  0  0  0  0  0  0  0  0
   -1.8789  -12.2893   27.1540 H   0  0  0  0  0  0  0  0  0  0  0  0
   -2.3678  -12.0401   29.3296 H   0  0  0  0  0  0  0  0  0  0  0  0
   -0.8302  -11.6023   31.0743 H   0  0  0  0  0  0  0  0  0  0  0  0
   -1.7647   -5.5118   31.5647 H   0  0  0  0  0  0  0  0  0  0  0  0
   -2.1819   -6.4481   33.0407 H   0  0  0  0  0  0  0  0  0  0  0  0
    0.2475   -4.3313   34.5965 H   0  0  0  0  0  0  0  0  0  0  0  0
   -1.4087   -4.8770   34.7088 H   0  0  0  0  0  0  0  0  0  0  0  0
    1.4881   -2.9244   33.3664 H   0  0  0  0  0  0  0  0  0  0  0  0
    1.6191   -1.2380   33.3850 H   0  0  0  0  0  0  0  0  0  0  0  0
    0.9214   -2.1620   31.9381 H   0  0  0  0  0  0  0  0  0  0  0  0
   -1.5090   -0.4192   33.5847 H   0  0  0  0  0  0  0  0  0  0  0  0
    0.1294   -0.0378   33.9214 H   0  0  0  0  0  0  0  0  0  0  0  0
    1.2726    1.0510   32.0437 H   0  0  0  0  0  0  0  0  0  0  0  0
    1.4677    1.6077   29.6484 H   0  0  0  0  0  0  0  0  0  0  0  0
   -0.1188    0.6332   28.0040 H   0  0  0  0  0  0  0  0  0  0  0  0
   -1.9313   -0.8608   28.7729 H   0  0  0  0  0  0  0  0  0  0  0  0
   -2.1766   -1.4005   31.1574 H   0  0  0  0  0  0  0  0  0  0  0  0
    1.3113   -6.8562   33.6381 H   0  0  0  0  0  0  0  0  0  0  0  0
   -0.0346   -6.9631   34.7357 H   0  0  0  0  0  0  0  0  0  0  0  0
    0.4755   -8.6009   32.6573 H   0  0  0  0  0  0  0  0  0  0  0  0
  1  2  1  0
  2  3  1  0
  3  4  1  0
  4  5  1  0
  5  6  1  0
  6  7  1  0
  7  8  1  0
  8  9  1  0
  9 10  1  0
 10 11  1  0
  4 12  1  0
 12 13  1  0
 13 14  1  0
 14 15  1  0
 15 16  1  0
 16 17  2  0
 16 18  1  0
 18 19  1  0
 18 20  1  0
 20 21  1  0
 21 22  2  0
 22 23  1  0
 23 24  2  0
 24 25  1  0
 25 26  2  0
 14 27  1  0
 27 28  1  0
 10  6  1  0
 28 12  1  0
 26 21  1  0
  1 29  1  0
  1 30  1  0
  1 31  1  0
  2 32  1  0
  2 33  1  0
  3 34  1  0
  3 35  1  0
  4 36  1  0
  5 37  1  0
  5 38  1  0
  6 39  1  0
  7 40  1  0
  8 41  1  0
  8 42  1  0
  9 43  1  0
 10 44  1  0
 13 45  1  0
 13 46  1  0
 15 47  1  0
 15 48  1  0
 19 49  1  0
 19 50  1  0
 19 51  1  0
 20 52  1  0
 20 53  1  0
 22 54  1  0
 23 55  1  0
 24 56  1  0
 25 57  1  0
 26 58  1  0
 27 59  1  0
 27 60  1  0
 28 61  1  0
M  END
>  <Energy>  (24) 
427.76399553892901

>  <compound_id>  (24) 
3901

>  <target_id>  (24) 
1

>  <reference_id>  (24) 
116

>  <inspiration_ids>  (24) 
[135, 116]

>  <energy_score>  (24) 
293.7793188798406

>  <distance_score>  (24) 
1.599007936454769

>  <path>  (24) 
/opt/xchem-fragalysis-2/maxwin/BulkDock/SCRATCH/505735/C3901-P116/C3901-P116.minimised.mol

>  <scratch_subdir>  (24) 
/opt/xchem-fragalysis-2/maxwin/BulkDock/SCRATCH/505735/C3901-P116

>  <fragmenstein_runtime>  (24) 
13.23862624168396

>  <fragmenstein_outcome>  (24) 
too moved

>  <fragmenstein_mode>  (24) 
expansion

>  <fragmenstein_error>  (24) 


$$$$
C3902-P135
     RDKit          3D

 65 68  0  0  0  0  0  0  0  0999 V2000
    1.4041   -3.3980   31.4018 C   0  0  0  0  0  0  0  0  0  0  0  0
    0.4168   -3.3776   32.5465 N   0  0  0  0  0  0  0  0  0  0  0  0
   -0.6143   -4.3428   32.3218 C   0  0  0  0  0  0  0  0  0  0  0  0
   -1.6813   -4.2366   31.7732 O   0  0  0  0  0  0  0  0  0  0  0  0
   -0.2058   -5.6743   32.9416 C   0  0  0  0  0  0  0  0  0  0  0  0
   -0.5332   -6.7771   32.0653 N   0  0  0  0  0  0  0  0  0  0  0  0
   -1.2659   -7.8774   32.3723 C   0  0  0  0  0  0  0  0  0  0  0  0
   -1.3924   -8.6238   31.2992 N   0  0  0  0  0  0  0  0  0  0  0  0
   -0.7199   -8.0077   30.2736 N   0  0  0  0  0  0  0  0  0  0  0  0
   -0.1977   -6.9041   30.7529 C   0  0  0  0  0  0  0  0  0  0  0  0
    0.4557   -1.8692   32.2675 C   0  0  0  0  0  0  0  0  0  0  0  0
   -0.2620   -1.3007   33.4340 N   0  0  0  0  0  0  0  0  0  0  0  0
   -1.7254   -1.2967   33.3665 C   0  0  0  0  0  0  0  0  0  0  0  0
   -2.2655   -1.2511   34.8025 C   0  0  0  0  0  0  0  0  0  0  0  0
   -3.8076   -1.1904   34.9151 C   0  0  0  0  0  0  0  0  0  0  0  0
   -4.3762   -2.2885   34.1908 O   0  0  0  0  0  0  0  0  0  0  0  0
   -4.2250   -1.2824   36.4023 C   0  0  0  0  0  0  0  0  0  0  0  0
   -5.3453   -0.3176   36.8116 C   0  0  0  0  0  0  0  0  0  0  0  0
   -6.3778   -0.3024   35.7861 N   0  0  0  0  0  0  0  0  0  0  0  0
   -7.5936    0.4128   36.1852 C   0  0  0  0  0  0  0  0  0  0  0  0
   -8.4628   -0.4806   37.0238 C   0  0  0  0  0  0  0  0  0  0  0  0
   -8.7595   -0.2709   38.4113 C   0  0  0  0  0  0  0  0  0  0  0  0
   -9.6224   -1.2172   38.9179 C   0  0  0  0  0  0  0  0  0  0  0  0
  -10.0846   -2.3612   37.7359 S   0  0  0  0  0  0  0  0  0  0  0  0
   -9.1251   -1.5993   36.5468 C   0  0  0  0  0  0  0  0  0  0  0  0
   -5.8609    0.2635   34.5330 C   0  0  0  0  0  0  0  0  0  0  0  0
   -4.3594    0.0864   34.2906 C   0  0  0  0  0  0  0  0  0  0  0  0
    0.0416   -1.1776   30.9577 C   0  0  0  0  0  0  0  0  0  0  0  0
    0.7580   -0.0281   30.5614 C   0  0  0  0  0  0  0  0  0  0  0  0
    0.4816    0.6187   29.3545 C   0  0  0  0  0  0  0  0  0  0  0  0
   -0.5141    0.1293   28.5172 C   0  0  0  0  0  0  0  0  0  0  0  0
   -1.2467   -0.9896   28.8965 C   0  0  0  0  0  0  0  0  0  0  0  0
   -0.9895   -1.6210   30.1163 C   0  0  0  0  0  0  0  0  0  0  0  0
    2.3355   -2.8221   31.5106 H   0  0  0  0  0  0  0  0  0  0  0  0
    0.9490   -3.3579   30.4046 H   0  0  0  0  0  0  0  0  0  0  0  0
    1.7951   -4.4280   31.4157 H   0  0  0  0  0  0  0  0  0  0  0  0
   -0.7469   -5.7995   33.8851 H   0  0  0  0  0  0  0  0  0  0  0  0
    0.8684   -5.7309   33.1428 H   0  0  0  0  0  0  0  0  0  0  0  0
   -1.6798   -8.0948   33.3474 H   0  0  0  0  0  0  0  0  0  0  0  0
    0.3855   -6.1860   30.1953 H   0  0  0  0  0  0  0  0  0  0  0  0
    1.4715   -1.5186   32.5255 H   0  0  0  0  0  0  0  0  0  0  0  0
    0.0468   -0.3372   33.5506 H   0  0  0  0  0  0  0  0  0  0  0  0
   -2.1262   -2.1814   32.8751 H   0  0  0  0  0  0  0  0  0  0  0  0
   -2.0568   -0.4214   32.7988 H   0  0  0  0  0  0  0  0  0  0  0  0
   -1.8312   -0.3919   35.3316 H   0  0  0  0  0  0  0  0  0  0  0  0
   -1.9142   -2.1546   35.3212 H   0  0  0  0  0  0  0  0  0  0  0  0
   -3.8487   -3.0932   34.3785 H   0  0  0  0  0  0  0  0  0  0  0  0
   -3.3702   -1.0831   37.0603 H   0  0  0  0  0  0  0  0  0  0  0  0
   -4.5619   -2.2949   36.6259 H   0  0  0  0  0  0  0  0  0  0  0  0
   -5.7439   -0.6598   37.7739 H   0  0  0  0  0  0  0  0  0  0  0  0
   -4.9384    0.6883   36.9798 H   0  0  0  0  0  0  0  0  0  0  0  0
   -7.3594    1.3489   36.7079 H   0  0  0  0  0  0  0  0  0  0  0  0
   -8.1891    0.6873   35.3028 H   0  0  0  0  0  0  0  0  0  0  0  0
   -8.3609    0.5420   39.0063 H   0  0  0  0  0  0  0  0  0  0  0  0
  -10.0068   -1.2894   39.9261 H   0  0  0  0  0  0  0  0  0  0  0  0
   -9.0908   -1.9934   35.5392 H   0  0  0  0  0  0  0  0  0  0  0  0
   -6.0349    1.3453   34.5152 H   0  0  0  0  0  0  0  0  0  0  0  0
   -6.4162   -0.1885   33.7027 H   0  0  0  0  0  0  0  0  0  0  0  0
   -3.8263    0.9561   34.6965 H   0  0  0  0  0  0  0  0  0  0  0  0
   -4.2011    0.0805   33.2074 H   0  0  0  0  0  0  0  0  0  0  0  0
    1.5544    0.3706   31.1870 H   0  0  0  0  0  0  0  0  0  0  0  0
    1.0476    1.4994   29.0610 H   0  0  0  0  0  0  0  0  0  0  0  0
   -0.7269    0.6149   27.5680 H   0  0  0  0  0  0  0  0  0  0  0  0
   -2.0177   -1.3805   28.2327 H   0  0  0  0  0  0  0  0  0  0  0  0
   -1.6004   -2.4797   30.3667 H   0  0  0  0  0  0  0  0  0  0  0  0
  1  2  1  0
  2  3  1  0
  3  4  2  0
  3  5  1  0
  5  6  1  0
  6  7  1  0
  7  8  2  0
  8  9  1  0
  9 10  2  0
  2 11  1  0
 11 12  1  0
 12 13  1  0
 13 14  1  0
 14 15  1  0
 15 16  1  0
 15 17  1  0
 17 18  1  0
 18 19  1  0
 19 20  1  0
 20 21  1  0
 21 22  1  0
 22 23  2  0
 23 24  1  0
 24 25  1  0
 19 26  1  0
 26 27  1  0
 11 28  1  0
 28 29  2  0
 29 30  1  0
 30 31  2  0
 31 32  1  0
 32 33  2  0
 10  6  1  0
 27 15  1  0
 33 28  1  0
 25 21  2  0
  1 34  1  0
  1 35  1  0
  1 36  1  0
  5 37  1  0
  5 38  1  0
  7 39  1  0
 10 40  1  0
 11 41  1  0
 12 42  1  0
 13 43  1  0
 13 44  1  0
 14 45  1  0
 14 46  1  0
 16 47  1  0
 17 48  1  0
 17 49  1  0
 18 50  1  0
 18 51  1  0
 20 52  1  0
 20 53  1  0
 22 54  1  0
 23 55  1  0
 25 56  1  0
 26 57  1  0
 26 58  1  0
 27 59  1  0
 27 60  1  0
 29 61  1  0
 30 62  1  0
 31 63  1  0
 32 64  1  0
 33 65  1  0
M  END
>  <Energy>  (25) 
76.330957451797147

>  <compound_id>  (25) 
3902

>  <target_id>  (25) 
1

>  <reference_id>  (25) 
135

>  <inspiration_ids>  (25) 
[135, 121]

>  <energy_score>  (25) 
10.596462913630319

>  <distance_score>  (25) 
0.9283587992567834

>  <path>  (25) 
/opt/xchem-fragalysis-2/maxwin/BulkDock/SCRATCH/505735/C3902-P135/C3902-P135.minimised.mol

>  <scratch_subdir>  (25) 
/opt/xchem-fragalysis-2/maxwin/BulkDock/SCRATCH/505735/C3902-P135

>  <fragmenstein_runtime>  (25) 
10.691764116287231

>  <fragmenstein_outcome>  (25) 
too contorted

>  <fragmenstein_mode>  (25) 
expansion

>  <fragmenstein_error>  (25) 


$$$$
C3902-P121
     RDKit          3D

 65 68  0  0  0  0  0  0  0  0999 V2000
    1.9647   -3.1366   31.0022 C   0  0  0  0  0  0  0  0  0  0  0  0
    0.9660   -3.2990   32.1240 N   0  0  0  0  0  0  0  0  0  0  0  0
    0.0228   -4.3282   31.7960 C   0  0  0  0  0  0  0  0  0  0  0  0
   -1.0409   -4.2655   31.2376 O   0  0  0  0  0  0  0  0  0  0  0  0
    0.5547   -5.6483   32.3462 C   0  0  0  0  0  0  0  0  0  0  0  0
   -0.4408   -6.6950   32.3195 N   0  0  0  0  0  0  0  0  0  0  0  0
   -1.0224   -7.2996   33.3873 C   0  0  0  0  0  0  0  0  0  0  0  0
   -1.8080   -8.2644   32.9639 N   0  0  0  0  0  0  0  0  0  0  0  0
   -1.7728   -8.2577   31.5858 N   0  0  0  0  0  0  0  0  0  0  0  0
   -0.9132   -7.3346   31.2181 C   0  0  0  0  0  0  0  0  0  0  0  0
    0.8776   -1.7771   31.9759 C   0  0  0  0  0  0  0  0  0  0  0  0
    0.1074   -1.3632   33.1800 N   0  0  0  0  0  0  0  0  0  0  0  0
   -1.3509   -1.4781   33.0854 C   0  0  0  0  0  0  0  0  0  0  0  0
   -1.9496   -1.4023   34.4955 C   0  0  0  0  0  0  0  0  0  0  0  0
   -3.4953   -1.4723   34.5322 C   0  0  0  0  0  0  0  0  0  0  0  0
   -3.9162   -2.6473   33.8241 O   0  0  0  0  0  0  0  0  0  0  0  0
   -3.9802   -1.5618   35.9953 C   0  0  0  0  0  0  0  0  0  0  0  0
   -5.1157   -0.5870   36.3414 C   0  0  0  0  0  0  0  0  0  0  0  0
   -6.1673   -0.6143   35.3293 N   0  0  0  0  0  0  0  0  0  0  0  0
   -7.3074    0.2515   35.6670 C   0  0  0  0  0  0  0  0  0  0  0  0
   -8.2113   -0.4292   36.6590 C   0  0  0  0  0  0  0  0  0  0  0  0
   -8.3708   -0.0392   38.0306 C   0  0  0  0  0  0  0  0  0  0  0  0
   -9.3132   -0.7953   38.6923 C   0  0  0  0  0  0  0  0  0  0  0  0
  -10.0207   -1.9713   37.6746 S   0  0  0  0  0  0  0  0  0  0  0  0
   -9.0518   -1.4864   36.3538 C   0  0  0  0  0  0  0  0  0  0  0  0
   -5.6559   -0.2618   33.9926 C   0  0  0  0  0  0  0  0  0  0  0  0
   -4.1318   -0.2703   33.8403 C   0  0  0  0  0  0  0  0  0  0  0  0
    0.4055   -1.0145   30.7270 C   0  0  0  0  0  0  0  0  0  0  0  0
    1.0794    0.1752   30.3798 C   0  0  0  0  0  0  0  0  0  0  0  0
    0.7111    0.9144   29.2535 C   0  0  0  0  0  0  0  0  0  0  0  0
   -0.3430    0.4850   28.4552 C   0  0  0  0  0  0  0  0  0  0  0  0
   -1.0285   -0.6784   28.7857 C   0  0  0  0  0  0  0  0  0  0  0  0
   -0.6647   -1.4156   29.9151 C   0  0  0  0  0  0  0  0  0  0  0  0
    2.8487   -2.5084   31.1885 H   0  0  0  0  0  0  0  0  0  0  0  0
    1.5173   -3.0243   30.0062 H   0  0  0  0  0  0  0  0  0  0  0  0
    2.4287   -4.1321   30.9168 H   0  0  0  0  0  0  0  0  0  0  0  0
    0.8836   -5.5164   33.3826 H   0  0  0  0  0  0  0  0  0  0  0  0
    1.3989   -5.9882   31.7387 H   0  0  0  0  0  0  0  0  0  0  0  0
   -0.8453   -7.0182   34.4158 H   0  0  0  0  0  0  0  0  0  0  0  0
   -0.6142   -7.0992   30.2060 H   0  0  0  0  0  0  0  0  0  0  0  0
    1.8568   -1.3624   32.2760 H   0  0  0  0  0  0  0  0  0  0  0  0
    0.3295   -0.3872   33.3668 H   0  0  0  0  0  0  0  0  0  0  0  0
   -1.6583   -2.4212   32.6365 H   0  0  0  0  0  0  0  0  0  0  0  0
   -1.7412   -0.6620   32.4702 H   0  0  0  0  0  0  0  0  0  0  0  0
   -1.6151   -0.4824   34.9934 H   0  0  0  0  0  0  0  0  0  0  0  0
   -1.5464   -2.2450   35.0750 H   0  0  0  0  0  0  0  0  0  0  0  0
   -3.4626   -3.4174   34.2328 H   0  0  0  0  0  0  0  0  0  0  0  0
   -3.1569   -1.3524   36.6900 H   0  0  0  0  0  0  0  0  0  0  0  0
   -4.3045   -2.5823   36.2093 H   0  0  0  0  0  0  0  0  0  0  0  0
   -5.5126   -0.8797   37.3206 H   0  0  0  0  0  0  0  0  0  0  0  0
   -4.7100    0.4269   36.4581 H   0  0  0  0  0  0  0  0  0  0  0  0
   -6.9756    1.2299   36.0372 H   0  0  0  0  0  0  0  0  0  0  0  0
   -7.9201    0.4469   34.7766 H   0  0  0  0  0  0  0  0  0  0  0  0
   -7.8247    0.7688   38.5029 H   0  0  0  0  0  0  0  0  0  0  0  0
   -9.6272   -0.7053   39.7234 H   0  0  0  0  0  0  0  0  0  0  0  0
   -9.1495   -1.9822   35.3965 H   0  0  0  0  0  0  0  0  0  0  0  0
   -5.9722    0.7431   33.7017 H   0  0  0  0  0  0  0  0  0  0  0  0
   -6.1036   -0.9538   33.2690 H   0  0  0  0  0  0  0  0  0  0  0  0
   -3.7210    0.6604   34.2531 H   0  0  0  0  0  0  0  0  0  0  0  0
   -3.9046   -0.2705   32.7698 H   0  0  0  0  0  0  0  0  0  0  0  0
    1.9095    0.5361   30.9840 H   0  0  0  0  0  0  0  0  0  0  0  0
    1.2490    1.8232   28.9961 H   0  0  0  0  0  0  0  0  0  0  0  0
   -0.6340    1.0552   27.5777 H   0  0  0  0  0  0  0  0  0  0  0  0
   -1.8526   -1.0227   28.1645 H   0  0  0  0  0  0  0  0  0  0  0  0
   -1.2415   -2.3066   30.1365 H   0  0  0  0  0  0  0  0  0  0  0  0
  1  2  1  0
  2  3  1  0
  3  4  2  0
  3  5  1  0
  5  6  1  0
  6  7  1  0
  7  8  2  0
  8  9  1  0
  9 10  2  0
  2 11  1  0
 11 12  1  0
 12 13  1  0
 13 14  1  0
 14 15  1  0
 15 16  1  0
 15 17  1  0
 17 18  1  0
 18 19  1  0
 19 20  1  0
 20 21  1  0
 21 22  1  0
 22 23  2  0
 23 24  1  0
 24 25  1  0
 19 26  1  0
 26 27  1  0
 11 28  1  0
 28 29  2  0
 29 30  1  0
 30 31  2  0
 31 32  1  0
 32 33  2  0
 10  6  1  0
 27 15  1  0
 33 28  1  0
 25 21  2  0
  1 34  1  0
  1 35  1  0
  1 36  1  0
  5 37  1  0
  5 38  1  0
  7 39  1  0
 10 40  1  0
 11 41  1  0
 12 42  1  0
 13 43  1  0
 13 44  1  0
 14 45  1  0
 14 46  1  0
 16 47  1  0
 17 48  1  0
 17 49  1  0
 18 50  1  0
 18 51  1  0
 20 52  1  0
 20 53  1  0
 22 54  1  0
 23 55  1  0
 25 56  1  0
 26 57  1  0
 26 58  1  0
 27 59  1  0
 27 60  1  0
 29 61  1  0
 30 62  1  0
 31 63  1  0
 32 64  1  0
 33 65  1  0
M  END
>  <Energy>  (26) 
74.711183466579868

>  <compound_id>  (26) 
3902

>  <target_id>  (26) 
1

>  <reference_id>  (26) 
121

>  <inspiration_ids>  (26) 
[135, 121]

>  <energy_score>  (26) 
8.976688928406134

>  <distance_score>  (26) 
0.9709978359395407

>  <path>  (26) 
/opt/xchem-fragalysis-2/maxwin/BulkDock/SCRATCH/505735/C3902-P121/C3902-P121.minimised.mol

>  <scratch_subdir>  (26) 
/opt/xchem-fragalysis-2/maxwin/BulkDock/SCRATCH/505735/C3902-P121

>  <fragmenstein_runtime>  (26) 
9.913625478744507

>  <fragmenstein_outcome>  (26) 
too contorted

>  <fragmenstein_mode>  (26) 
expansion

>  <fragmenstein_error>  (26) 


$$$$
C3710-P135
     RDKit          3D

 54 57  0  0  0  0  0  0  0  0999 V2000
    2.7540   -6.8267   35.2217 C   0  0  0  0  0  0  0  0  0  0  0  0
    1.3068   -6.5580   35.5284 N   0  0  0  0  0  0  0  0  0  0  0  0
    1.7650   -6.9501   36.9419 C   0  0  0  0  0  0  0  0  0  0  0  0
    0.7396   -6.7731   38.0600 C   0  0  0  0  0  0  0  0  0  0  0  0
    0.0112   -5.5929   38.2481 C   0  0  0  0  0  0  0  0  0  0  0  0
   -0.7123   -5.3781   39.4250 C   0  0  0  0  0  0  0  0  0  0  0  0
   -0.7089   -6.3321   40.4390 C   0  0  0  0  0  0  0  0  0  0  0  0
   -0.0090   -7.5204   40.2645 C   0  0  0  0  0  0  0  0  0  0  0  0
    0.7084   -7.7377   39.0868 C   0  0  0  0  0  0  0  0  0  0  0  0
    0.9154   -5.2903   34.9911 C   0  0  0  0  0  0  0  0  0  0  0  0
    0.9304   -4.1951   35.4854 O   0  0  0  0  0  0  0  0  0  0  0  0
    0.5248   -5.4223   33.5278 C   0  0  0  0  0  0  0  0  0  0  0  0
    1.0644   -4.5206   32.6439 C   0  0  0  0  0  0  0  0  0  0  0  0
    1.8497   -3.3173   33.0246 C   0  0  0  0  0  0  0  0  0  0  0  0
    1.2768   -2.0546   32.8037 C   0  0  0  0  0  0  0  0  0  0  0  0
    1.9678   -0.8929   33.1397 C   0  0  0  0  0  0  0  0  0  0  0  0
    3.2224   -0.9835   33.7362 C   0  0  0  0  0  0  0  0  0  0  0  0
    3.7920   -2.2338   33.9863 C   0  0  0  0  0  0  0  0  0  0  0  0
    5.0507   -2.2652   34.6561 N   0  0  0  0  0  0  0  0  0  0  0  0
    5.2753   -3.2457   36.0026 S   0  0  0  0  0  0  0  0  0  0  0  0
    3.8776   -2.8653   37.0471 C   0  0  0  0  0  0  0  0  0  0  0  0
    6.4598   -2.7353   36.6591 O   0  0  0  0  0  0  0  0  0  0  0  0
    5.2036   -4.6318   35.5934 O   0  0  0  0  0  0  0  0  0  0  0  0
    3.1357   -3.3958   33.5738 C   0  0  0  0  0  0  0  0  0  0  0  0
    0.8286   -4.7224   31.2087 C   0  0  0  0  0  0  0  0  0  0  0  0
    0.1128   -5.7470   30.7359 C   0  0  0  0  0  0  0  0  0  0  0  0
   -0.4671   -6.6609   31.6365 C   0  0  0  0  0  0  0  0  0  0  0  0
   -1.1985   -7.7242   31.4087 N   0  0  0  0  0  0  0  0  0  0  0  0
   -1.5544   -8.2305   32.6213 N   0  0  0  0  0  0  0  0  0  0  0  0
   -1.0402   -7.4788   33.5713 C   0  0  0  0  0  0  0  0  0  0  0  0
   -1.2284   -7.6803   34.8927 N   0  0  0  0  0  0  0  0  0  0  0  0
   -0.2748   -6.4648   33.0064 N   0  0  0  0  0  0  0  0  0  0  0  0
    3.0760   -7.8698   35.3553 H   0  0  0  0  0  0  0  0  0  0  0  0
    2.8564   -6.6790   34.1381 H   0  0  0  0  0  0  0  0  0  0  0  0
    3.4402   -6.0883   35.6389 H   0  0  0  0  0  0  0  0  0  0  0  0
    2.5892   -6.3232   37.3242 H   0  0  0  0  0  0  0  0  0  0  0  0
    2.0134   -8.0223   36.9588 H   0  0  0  0  0  0  0  0  0  0  0  0
    0.0222   -4.7934   37.5169 H   0  0  0  0  0  0  0  0  0  0  0  0
   -1.2771   -4.4573   39.5531 H   0  0  0  0  0  0  0  0  0  0  0  0
   -1.2732   -6.1569   41.3512 H   0  0  0  0  0  0  0  0  0  0  0  0
   -0.0130   -8.2799   41.0429 H   0  0  0  0  0  0  0  0  0  0  0  0
    1.2740   -8.6650   39.0008 H   0  0  0  0  0  0  0  0  0  0  0  0
    0.2800   -1.9683   32.3743 H   0  0  0  0  0  0  0  0  0  0  0  0
    1.5162    0.0796   32.9600 H   0  0  0  0  0  0  0  0  0  0  0  0
    3.7347   -0.0684   34.0208 H   0  0  0  0  0  0  0  0  0  0  0  0
    5.5353   -1.3738   34.7663 H   0  0  0  0  0  0  0  0  0  0  0  0
    2.9605   -3.2059   36.5733 H   0  0  0  0  0  0  0  0  0  0  0  0
    3.8554   -1.7894   37.2293 H   0  0  0  0  0  0  0  0  0  0  0  0
    4.0173   -3.3958   37.9919 H   0  0  0  0  0  0  0  0  0  0  0  0
    3.6101   -4.3620   33.7019 H   0  0  0  0  0  0  0  0  0  0  0  0
    1.2653   -4.0080   30.5131 H   0  0  0  0  0  0  0  0  0  0  0  0
   -0.0523   -5.8733   29.6760 H   0  0  0  0  0  0  0  0  0  0  0  0
   -1.4686   -8.6564   35.0993 H   0  0  0  0  0  0  0  0  0  0  0  0
   -0.5262   -7.3318   35.5437 H   0  0  0  0  0  0  0  0  0  0  0  0
  1  2  1  0
  2  3  1  0
  3  4  1  0
  4  5  2  0
  5  6  1  0
  6  7  2  0
  7  8  1  0
  8  9  2  0
  2 10  1  0
 10 11  2  0
 10 12  1  0
 12 13  2  0
 13 14  1  0
 14 15  2  0
 15 16  1  0
 16 17  2  0
 17 18  1  0
 18 19  1  0
 19 20  1  0
 20 21  1  0
 20 22  2  0
 20 23  2  0
 18 24  2  0
 13 25  1  0
 25 26  2  0
 26 27  1  0
 27 28  2  0
 28 29  1  0
 29 30  2  0
 30 31  1  0
 30 32  1  0
  9  4  1  0
 32 12  1  0
 24 14  1  0
 32 27  1  0
  1 33  1  0
  1 34  1  0
  1 35  1  0
  3 36  1  0
  3 37  1  0
  5 38  1  0
  6 39  1  0
  7 40  1  0
  8 41  1  0
  9 42  1  0
 15 43  1  0
 16 44  1  0
 17 45  1  0
 19 46  1  0
 21 47  1  0
 21 48  1  0
 21 49  1  0
 24 50  1  0
 25 51  1  0
 26 52  1  0
 31 53  1  0
 31 54  1  0
M  END
>  <Energy>  (27) 
57.594990387660154

>  <compound_id>  (27) 
3710

>  <target_id>  (27) 
1

>  <reference_id>  (27) 
135

>  <inspiration_ids>  (27) 
[135, 129]

>  <energy_score>  (27) 
13.169528182145967

>  <distance_score>  (27) 
3.6779866433901787

>  <path>  (27) 
/opt/xchem-fragalysis-2/maxwin/BulkDock/SCRATCH/505735/C3710-P135/C3710-P135.minimised.mol

>  <scratch_subdir>  (27) 
/opt/xchem-fragalysis-2/maxwin/BulkDock/SCRATCH/505735/C3710-P135

>  <fragmenstein_runtime>  (27) 
8.099571943283081

>  <fragmenstein_outcome>  (27) 
too moved

>  <fragmenstein_mode>  (27) 
expansion

>  <fragmenstein_error>  (27) 


$$$$
C3710-P129
     RDKit          3D

 54 57  0  0  0  0  0  0  0  0999 V2000
   -1.8775   -2.4895   33.1235 C   0  0  0  0  0  0  0  0  0  0  0  0
   -0.5115   -2.7425   33.7043 N   0  0  0  0  0  0  0  0  0  0  0  0
   -0.9207   -1.5327   34.5250 C   0  0  0  0  0  0  0  0  0  0  0  0
    0.2233   -1.0403   35.4065 C   0  0  0  0  0  0  0  0  0  0  0  0
    0.2898   -1.4064   36.7581 C   0  0  0  0  0  0  0  0  0  0  0  0
    1.2478   -0.8354   37.5981 C   0  0  0  0  0  0  0  0  0  0  0  0
    2.1684    0.0798   37.0914 C   0  0  0  0  0  0  0  0  0  0  0  0
    2.1253    0.4340   35.7452 C   0  0  0  0  0  0  0  0  0  0  0  0
    1.1564   -0.1213   34.9069 C   0  0  0  0  0  0  0  0  0  0  0  0
   -0.3442   -4.2057   34.1072 C   0  0  0  0  0  0  0  0  0  0  0  0
   -0.5716   -4.7454   35.1296 O   0  0  0  0  0  0  0  0  0  0  0  0
    0.1005   -5.0039   32.8876 C   0  0  0  0  0  0  0  0  0  0  0  0
    1.0642   -4.5342   32.0409 C   0  0  0  0  0  0  0  0  0  0  0  0
    1.9772   -3.4308   32.3986 C   0  0  0  0  0  0  0  0  0  0  0  0
    2.1391   -2.3125   31.5774 C   0  0  0  0  0  0  0  0  0  0  0  0
    3.0596   -1.3279   31.9283 C   0  0  0  0  0  0  0  0  0  0  0  0
    3.7986   -1.4496   33.1097 C   0  0  0  0  0  0  0  0  0  0  0  0
    3.6379   -2.5610   33.9420 C   0  0  0  0  0  0  0  0  0  0  0  0
    4.3437   -2.5785   35.1753 N   0  0  0  0  0  0  0  0  0  0  0  0
    4.4721   -3.8798   36.2031 S   0  0  0  0  0  0  0  0  0  0  0  0
    2.8912   -3.9348   37.0214 C   0  0  0  0  0  0  0  0  0  0  0  0
    5.4436   -3.4859   37.2026 O   0  0  0  0  0  0  0  0  0  0  0  0
    4.6457   -5.0953   35.4364 O   0  0  0  0  0  0  0  0  0  0  0  0
    2.7561   -3.5623   33.5565 C   0  0  0  0  0  0  0  0  0  0  0  0
    1.3061   -5.2460   30.7863 C   0  0  0  0  0  0  0  0  0  0  0  0
    0.6342   -6.3526   30.4562 C   0  0  0  0  0  0  0  0  0  0  0  0
   -0.3017   -6.8981   31.3512 C   0  0  0  0  0  0  0  0  0  0  0  0
   -1.0565   -7.9641   31.2493 N   0  0  0  0  0  0  0  0  0  0  0  0
   -1.6424   -8.1514   32.4635 N   0  0  0  0  0  0  0  0  0  0  0  0
   -1.2722   -7.1816   33.2733 C   0  0  0  0  0  0  0  0  0  0  0  0
   -1.5473   -7.1361   34.5926 N   0  0  0  0  0  0  0  0  0  0  0  0
   -0.4944   -6.2581   32.5748 N   0  0  0  0  0  0  0  0  0  0  0  0
   -1.8861   -1.6267   32.4381 H   0  0  0  0  0  0  0  0  0  0  0  0
   -2.7420   -2.5062   33.7978 H   0  0  0  0  0  0  0  0  0  0  0  0
   -2.0570   -3.3285   32.4404 H   0  0  0  0  0  0  0  0  0  0  0  0
   -1.7150   -1.7872   35.2483 H   0  0  0  0  0  0  0  0  0  0  0  0
   -1.1891   -0.6337   33.9420 H   0  0  0  0  0  0  0  0  0  0  0  0
   -0.4237   -2.1177   37.1711 H   0  0  0  0  0  0  0  0  0  0  0  0
    1.2752   -1.1069   38.6508 H   0  0  0  0  0  0  0  0  0  0  0  0
    2.9127    0.5219   37.7488 H   0  0  0  0  0  0  0  0  0  0  0  0
    2.8355    1.1552   35.3496 H   0  0  0  0  0  0  0  0  0  0  0  0
    1.1180    0.1823   33.8633 H   0  0  0  0  0  0  0  0  0  0  0  0
    1.5558   -2.2014   30.6662 H   0  0  0  0  0  0  0  0  0  0  0  0
    3.1939   -0.4570   31.2914 H   0  0  0  0  0  0  0  0  0  0  0  0
    4.4933   -0.6580   33.3777 H   0  0  0  0  0  0  0  0  0  0  0  0
    4.7991   -1.7285   35.5017 H   0  0  0  0  0  0  0  0  0  0  0  0
    2.0826   -3.9878   36.2957 H   0  0  0  0  0  0  0  0  0  0  0  0
    2.8054   -3.0558   37.6574 H   0  0  0  0  0  0  0  0  0  0  0  0
    2.8758   -4.8312   37.6463 H   0  0  0  0  0  0  0  0  0  0  0  0
    2.6419   -4.4622   34.1504 H   0  0  0  0  0  0  0  0  0  0  0  0
    2.0710   -4.8619   30.1151 H   0  0  0  0  0  0  0  0  0  0  0  0
    0.8618   -6.8897   29.5524 H   0  0  0  0  0  0  0  0  0  0  0  0
   -1.6156   -8.0584   35.0350 H   0  0  0  0  0  0  0  0  0  0  0  0
   -1.0690   -6.4499   35.1843 H   0  0  0  0  0  0  0  0  0  0  0  0
  1  2  1  0
  2  3  1  0
  3  4  1  0
  4  5  2  0
  5  6  1  0
  6  7  2  0
  7  8  1  0
  8  9  2  0
  2 10  1  0
 10 11  2  0
 10 12  1  0
 12 13  2  0
 13 14  1  0
 14 15  2  0
 15 16  1  0
 16 17  2  0
 17 18  1  0
 18 19  1  0
 19 20  1  0
 20 21  1  0
 20 22  2  0
 20 23  2  0
 18 24  2  0
 13 25  1  0
 25 26  2  0
 26 27  1  0
 27 28  2  0
 28 29  1  0
 29 30  2  0
 30 31  1  0
 30 32  1  0
  9  4  1  0
 32 12  1  0
 24 14  1  0
 32 27  1  0
  1 33  1  0
  1 34  1  0
  1 35  1  0
  3 36  1  0
  3 37  1  0
  5 38  1  0
  6 39  1  0
  7 40  1  0
  8 41  1  0
  9 42  1  0
 15 43  1  0
 16 44  1  0
 17 45  1  0
 19 46  1  0
 21 47  1  0
 21 48  1  0
 21 49  1  0
 24 50  1  0
 25 51  1  0
 26 52  1  0
 31 53  1  0
 31 54  1  0
M  END
>  <Energy>  (28) 
67.540254289030088

>  <compound_id>  (28) 
3710

>  <target_id>  (28) 
1

>  <reference_id>  (28) 
129

>  <inspiration_ids>  (28) 
[135, 129]

>  <energy_score>  (28) 
13.985467794715788

>  <distance_score>  (28) 
2.118458011999179

>  <path>  (28) 
/opt/xchem-fragalysis-2/maxwin/BulkDock/SCRATCH/505735/C3710-P129/C3710-P129.minimised.mol

>  <scratch_subdir>  (28) 
/opt/xchem-fragalysis-2/maxwin/BulkDock/SCRATCH/505735/C3710-P129

>  <fragmenstein_runtime>  (28) 
5.664413690567017

>  <fragmenstein_outcome>  (28) 
too moved

>  <fragmenstein_mode>  (28) 
expansion

>  <fragmenstein_error>  (28) 


$$$$
C3814-P135
     RDKit          3D

 54 57  0  0  0  0  0  0  0  0999 V2000
    6.3928   -1.0140   33.8128 C   0  0  0  0  0  0  0  0  0  0  0  0
    5.0243   -0.7368   34.1104 O   0  0  0  0  0  0  0  0  0  0  0  0
    4.2095   -1.6593   33.5029 C   0  0  0  0  0  0  0  0  0  0  0  0
    3.5650   -1.2660   32.3271 C   0  0  0  0  0  0  0  0  0  0  0  0
    2.6974   -2.1435   31.6787 C   0  0  0  0  0  0  0  0  0  0  0  0
    2.4467   -3.3997   32.2307 C   0  0  0  0  0  0  0  0  0  0  0  0
    1.5933   -4.3939   31.5489 C   0  0  0  0  0  0  0  0  0  0  0  0
    2.1140   -5.0536   30.3472 C   0  0  0  0  0  0  0  0  0  0  0  0
    1.4899   -6.0939   29.7743 C   0  0  0  0  0  0  0  0  0  0  0  0
    0.3907   -6.6960   30.4356 C   0  0  0  0  0  0  0  0  0  0  0  0
   -0.3038   -7.7924   30.2163 N   0  0  0  0  0  0  0  0  0  0  0  0
   -1.1172   -7.9929   31.3098 N   0  0  0  0  0  0  0  0  0  0  0  0
   -0.9256   -6.9958   32.1462 C   0  0  0  0  0  0  0  0  0  0  0  0
   -1.3455   -6.9052   33.4309 N   0  0  0  0  0  0  0  0  0  0  0  0
   -0.0756   -6.0676   31.5709 N   0  0  0  0  0  0  0  0  0  0  0  0
    0.3997   -4.8347   32.0403 C   0  0  0  0  0  0  0  0  0  0  0  0
   -0.6533   -3.8379   32.4882 C   0  0  0  0  0  0  0  0  0  0  0  0
   -1.7840   -4.0829   32.1484 O   0  0  0  0  0  0  0  0  0  0  0  0
   -0.1217   -2.7236   33.1567 N   0  0  0  0  0  0  0  0  0  0  0  0
   -0.1427   -2.9528   34.6443 C   0  0  0  0  0  0  0  0  0  0  0  0
   -0.7599   -1.4267   33.5659 C   0  0  0  0  0  0  0  0  0  0  0  0
   -0.6619   -0.5712   32.2835 C   0  0  0  0  0  0  0  0  0  0  0  0
    0.3396    0.4047   32.1668 C   0  0  0  0  0  0  0  0  0  0  0  0
    0.5728    1.0427   30.9461 C   0  0  0  0  0  0  0  0  0  0  0  0
   -0.1880    0.7118   29.8268 C   0  0  0  0  0  0  0  0  0  0  0  0
   -1.1988   -0.2400   29.9315 C   0  0  0  0  0  0  0  0  0  0  0  0
   -1.4433   -0.8700   31.1538 C   0  0  0  0  0  0  0  0  0  0  0  0
    3.1014   -3.7882   33.4183 C   0  0  0  0  0  0  0  0  0  0  0  0
    3.9829   -2.9221   34.0673 C   0  0  0  0  0  0  0  0  0  0  0  0
    4.6469   -3.2058   35.2311 O   0  0  0  0  0  0  0  0  0  0  0  0
    4.5939   -4.5432   35.7091 C   0  0  0  0  0  0  0  0  0  0  0  0
    6.7272   -1.9433   34.2847 H   0  0  0  0  0  0  0  0  0  0  0  0
    6.5654   -1.0534   32.7312 H   0  0  0  0  0  0  0  0  0  0  0  0
    6.9946   -0.1958   34.2198 H   0  0  0  0  0  0  0  0  0  0  0  0
    3.7403   -0.2755   31.9166 H   0  0  0  0  0  0  0  0  0  0  0  0
    2.2019   -1.8321   30.7612 H   0  0  0  0  0  0  0  0  0  0  0  0
    3.0012   -4.6316   29.8801 H   0  0  0  0  0  0  0  0  0  0  0  0
    1.8924   -6.5456   28.8747 H   0  0  0  0  0  0  0  0  0  0  0  0
   -1.7781   -6.0134   33.6915 H   0  0  0  0  0  0  0  0  0  0  0  0
   -1.9496   -7.6801   33.6953 H   0  0  0  0  0  0  0  0  0  0  0  0
    0.5777   -2.3314   35.1971 H   0  0  0  0  0  0  0  0  0  0  0  0
    0.2407   -3.9736   34.7964 H   0  0  0  0  0  0  0  0  0  0  0  0
   -1.1468   -2.9970   35.0960 H   0  0  0  0  0  0  0  0  0  0  0  0
   -1.8350   -1.5435   33.7734 H   0  0  0  0  0  0  0  0  0  0  0  0
   -0.2570   -0.8221   34.3380 H   0  0  0  0  0  0  0  0  0  0  0  0
    0.9817    0.6393   33.0130 H   0  0  0  0  0  0  0  0  0  0  0  0
    1.3623    1.7849   30.8628 H   0  0  0  0  0  0  0  0  0  0  0  0
    0.0000    1.1962   28.8720 H   0  0  0  0  0  0  0  0  0  0  0  0
   -1.7846   -0.5072   29.0542 H   0  0  0  0  0  0  0  0  0  0  0  0
   -2.2113   -1.6387   31.2036 H   0  0  0  0  0  0  0  0  0  0  0  0
    2.9022   -4.7779   33.8161 H   0  0  0  0  0  0  0  0  0  0  0  0
    4.9633   -5.2494   34.9580 H   0  0  0  0  0  0  0  0  0  0  0  0
    5.2492   -4.6125   36.5826 H   0  0  0  0  0  0  0  0  0  0  0  0
    3.5805   -4.8031   36.0316 H   0  0  0  0  0  0  0  0  0  0  0  0
  1  2  1  0
  2  3  1  0
  3  4  2  0
  4  5  1  0
  5  6  2  0
  6  7  1  0
  7  8  1  0
  8  9  2  0
  9 10  1  0
 10 11  2  0
 11 12  1  0
 12 13  2  0
 13 14  1  0
 13 15  1  0
 15 16  1  0
 16 17  1  0
 17 18  2  0
 17 19  1  0
 19 20  1  0
 19 21  1  0
 21 22  1  0
 22 23  2  0
 23 24  1  0
 24 25  2  0
 25 26  1  0
 26 27  2  0
  6 28  1  0
 28 29  2  0
 29 30  1  0
 30 31  1  0
 29  3  1  0
 16  7  2  0
 27 22  1  0
 15 10  1  0
  1 32  1  0
  1 33  1  0
  1 34  1  0
  4 35  1  0
  5 36  1  0
  8 37  1  0
  9 38  1  0
 14 39  1  0
 14 40  1  0
 20 41  1  0
 20 42  1  0
 20 43  1  0
 21 44  1  0
 21 45  1  0
 23 46  1  0
 24 47  1  0
 25 48  1  0
 26 49  1  0
 27 50  1  0
 28 51  1  0
 31 52  1  0
 31 53  1  0
 31 54  1  0
M  END
>  <Energy>  (29) 
151.2315979950798

>  <compound_id>  (29) 
3814

>  <target_id>  (29) 
1

>  <reference_id>  (29) 
135

>  <inspiration_ids>  (29) 
[135, 132]

>  <energy_score>  (29) 
36.47090622109994

>  <distance_score>  (29) 
1.6636042113662965

>  <path>  (29) 
/opt/xchem-fragalysis-2/maxwin/BulkDock/SCRATCH/505735/C3814-P135/C3814-P135.minimised.mol

>  <scratch_subdir>  (29) 
/opt/xchem-fragalysis-2/maxwin/BulkDock/SCRATCH/505735/C3814-P135

>  <fragmenstein_runtime>  (29) 
9.273661851882935

>  <fragmenstein_outcome>  (29) 
too moved

>  <fragmenstein_mode>  (29) 
expansion

>  <fragmenstein_error>  (29) 


$$$$
C3814-P132
     RDKit          3D

 54 57  0  0  0  0  0  0  0  0999 V2000
    6.4274   -0.9984   33.7735 C   0  0  0  0  0  0  0  0  0  0  0  0
    5.0569   -0.7253   34.0650 O   0  0  0  0  0  0  0  0  0  0  0  0
    4.2486   -1.6612   33.4694 C   0  0  0  0  0  0  0  0  0  0  0  0
    3.6011   -1.2874   32.2888 C   0  0  0  0  0  0  0  0  0  0  0  0
    2.7350   -2.1767   31.6540 C   0  0  0  0  0  0  0  0  0  0  0  0
    2.4912   -3.4257   32.2243 C   0  0  0  0  0  0  0  0  0  0  0  0
    1.6360   -4.4336   31.5662 C   0  0  0  0  0  0  0  0  0  0  0  0
    2.1722   -5.1409   30.3983 C   0  0  0  0  0  0  0  0  0  0  0  0
    1.5455   -6.1904   29.8457 C   0  0  0  0  0  0  0  0  0  0  0  0
    0.4217   -6.7518   30.4996 C   0  0  0  0  0  0  0  0  0  0  0  0
   -0.2856   -7.8436   30.3001 N   0  0  0  0  0  0  0  0  0  0  0  0
   -1.1202   -7.9995   31.3851 N   0  0  0  0  0  0  0  0  0  0  0  0
   -0.9271   -6.9805   32.1941 C   0  0  0  0  0  0  0  0  0  0  0  0
   -1.3492   -6.8506   33.4745 N   0  0  0  0  0  0  0  0  0  0  0  0
   -0.0600   -6.0785   31.6027 N   0  0  0  0  0  0  0  0  0  0  0  0
    0.4252   -4.8394   32.0460 C   0  0  0  0  0  0  0  0  0  0  0  0
   -0.6120   -3.8329   32.5110 C   0  0  0  0  0  0  0  0  0  0  0  0
   -1.7513   -4.0676   32.1934 O   0  0  0  0  0  0  0  0  0  0  0  0
   -0.0572   -2.7225   33.1670 N   0  0  0  0  0  0  0  0  0  0  0  0
   -0.0519   -2.9488   34.6551 C   0  0  0  0  0  0  0  0  0  0  0  0
   -0.6751   -1.4184   33.5859 C   0  0  0  0  0  0  0  0  0  0  0  0
   -0.5686   -0.5569   32.3081 C   0  0  0  0  0  0  0  0  0  0  0  0
    0.4295    0.4239   32.2044 C   0  0  0  0  0  0  0  0  0  0  0  0
    0.6703    1.0692   30.9889 C   0  0  0  0  0  0  0  0  0  0  0  0
   -0.0795    0.7410   29.8615 C   0  0  0  0  0  0  0  0  0  0  0  0
   -1.0864   -0.2161   29.9529 C   0  0  0  0  0  0  0  0  0  0  0  0
   -1.3388   -0.8528   31.1701 C   0  0  0  0  0  0  0  0  0  0  0  0
    3.1519   -3.7962   33.4145 C   0  0  0  0  0  0  0  0  0  0  0  0
    4.0298   -2.9175   34.0507 C   0  0  0  0  0  0  0  0  0  0  0  0
    4.6947   -3.1824   35.2183 O   0  0  0  0  0  0  0  0  0  0  0  0
    4.6545   -4.5156   35.7094 C   0  0  0  0  0  0  0  0  0  0  0  0
    6.7673   -1.9171   34.2620 H   0  0  0  0  0  0  0  0  0  0  0  0
    6.6016   -1.0557   32.6930 H   0  0  0  0  0  0  0  0  0  0  0  0
    7.0233   -0.1693   34.1668 H   0  0  0  0  0  0  0  0  0  0  0  0
    3.7708   -0.3015   31.8649 H   0  0  0  0  0  0  0  0  0  0  0  0
    2.2345   -1.8786   30.7349 H   0  0  0  0  0  0  0  0  0  0  0  0
    3.0745   -4.7457   29.9363 H   0  0  0  0  0  0  0  0  0  0  0  0
    1.9560   -6.6731   28.9661 H   0  0  0  0  0  0  0  0  0  0  0  0
   -1.7888   -5.9534   33.6997 H   0  0  0  0  0  0  0  0  0  0  0  0
   -1.9432   -7.6230   33.7675 H   0  0  0  0  0  0  0  0  0  0  0  0
    0.6875   -2.3358   35.1920 H   0  0  0  0  0  0  0  0  0  0  0  0
    0.3202   -3.9745   34.8024 H   0  0  0  0  0  0  0  0  0  0  0  0
   -1.0478   -2.9784   35.1262 H   0  0  0  0  0  0  0  0  0  0  0  0
   -1.7507   -1.5242   33.7964 H   0  0  0  0  0  0  0  0  0  0  0  0
   -0.1644   -0.8230   34.3600 H   0  0  0  0  0  0  0  0  0  0  0  0
    1.0637    0.6575   33.0570 H   0  0  0  0  0  0  0  0  0  0  0  0
    1.4573    1.8152   30.9164 H   0  0  0  0  0  0  0  0  0  0  0  0
    0.1142    1.2317   28.9111 H   0  0  0  0  0  0  0  0  0  0  0  0
   -1.6633   -0.4816   29.0695 H   0  0  0  0  0  0  0  0  0  0  0  0
   -2.1045   -1.6241   31.2104 H   0  0  0  0  0  0  0  0  0  0  0  0
    2.9570   -4.7810   33.8262 H   0  0  0  0  0  0  0  0  0  0  0  0
    5.0285   -5.2258   34.9643 H   0  0  0  0  0  0  0  0  0  0  0  0
    5.3123   -4.5707   36.5820 H   0  0  0  0  0  0  0  0  0  0  0  0
    3.6441   -4.7811   36.0367 H   0  0  0  0  0  0  0  0  0  0  0  0
  1  2  1  0
  2  3  1  0
  3  4  2  0
  4  5  1  0
  5  6  2  0
  6  7  1  0
  7  8  1  0
  8  9  2  0
  9 10  1  0
 10 11  2  0
 11 12  1  0
 12 13  2  0
 13 14  1  0
 13 15  1  0
 15 16  1  0
 16 17  1  0
 17 18  2  0
 17 19  1  0
 19 20  1  0
 19 21  1  0
 21 22  1  0
 22 23  2  0
 23 24  1  0
 24 25  2  0
 25 26  1  0
 26 27  2  0
  6 28  1  0
 28 29  2  0
 29 30  1  0
 30 31  1  0
 29  3  1  0
 16  7  2  0
 27 22  1  0
 15 10  1  0
  1 32  1  0
  1 33  1  0
  1 34  1  0
  4 35  1  0
  5 36  1  0
  8 37  1  0
  9 38  1  0
 14 39  1  0
 14 40  1  0
 20 41  1  0
 20 42  1  0
 20 43  1  0
 21 44  1  0
 21 45  1  0
 23 46  1  0
 24 47  1  0
 25 48  1  0
 26 49  1  0
 27 50  1  0
 28 51  1  0
 31 52  1  0
 31 53  1  0
 31 54  1  0
M  END
>  <Energy>  (30) 
149.56840237132914

>  <compound_id>  (30) 
3814

>  <target_id>  (30) 
1

>  <reference_id>  (30) 
132

>  <inspiration_ids>  (30) 
[135, 132]

>  <energy_score>  (30) 
34.807710597348915

>  <distance_score>  (30) 
1.6706993894237752

>  <path>  (30) 
/opt/xchem-fragalysis-2/maxwin/BulkDock/SCRATCH/505735/C3814-P132/C3814-P132.minimised.mol

>  <scratch_subdir>  (30) 
/opt/xchem-fragalysis-2/maxwin/BulkDock/SCRATCH/505735/C3814-P132

>  <fragmenstein_runtime>  (30) 
8.464890480041504

>  <fragmenstein_outcome>  (30) 
too moved

>  <fragmenstein_mode>  (30) 
expansion

>  <fragmenstein_error>  (30) 


$$$$
C3848-P135
     RDKit          3D

 51 54  0  0  0  0  0  0  0  0999 V2000
    5.0659   -0.2309   35.1285 C   0  0  0  0  0  0  0  0  0  0  0  0
    3.8112   -0.1052   34.4647 O   0  0  0  0  0  0  0  0  0  0  0  0
    3.3102   -1.2973   34.0090 C   0  0  0  0  0  0  0  0  0  0  0  0
    2.9115   -1.2935   32.6705 C   0  0  0  0  0  0  0  0  0  0  0  0
    2.3382   -2.4281   32.0985 C   0  0  0  0  0  0  0  0  0  0  0  0
    2.1340   -3.5721   32.8730 C   0  0  0  0  0  0  0  0  0  0  0  0
    1.4092   -4.7465   32.3215 C   0  0  0  0  0  0  0  0  0  0  0  0
    1.7335   -5.3294   31.0177 C   0  0  0  0  0  0  0  0  0  0  0  0
    0.9667   -6.2786   30.4500 C   0  0  0  0  0  0  0  0  0  0  0  0
   -0.0829   -6.8755   31.1881 C   0  0  0  0  0  0  0  0  0  0  0  0
   -0.8954   -7.8770   30.9415 N   0  0  0  0  0  0  0  0  0  0  0  0
   -1.5816   -8.1346   32.1055 N   0  0  0  0  0  0  0  0  0  0  0  0
   -1.2182   -7.2524   33.0130 C   0  0  0  0  0  0  0  0  0  0  0  0
   -1.4898   -7.2656   34.3321 N   0  0  0  0  0  0  0  0  0  0  0  0
   -0.3532   -6.3471   32.4367 N   0  0  0  0  0  0  0  0  0  0  0  0
    0.2757   -5.2066   32.9211 C   0  0  0  0  0  0  0  0  0  0  0  0
   -0.5028   -4.1401   33.6171 C   0  0  0  0  0  0  0  0  0  0  0  0
   -0.6385   -4.0192   34.7684 O   0  0  0  0  0  0  0  0  0  0  0  0
   -0.9656   -3.2257   32.4457 N   0  0  0  0  0  0  0  0  0  0  0  0
   -1.6007   -1.9397   32.4635 C   0  0  0  0  0  0  0  0  0  0  0  0
   -1.1215   -1.2240   31.2087 C   0  0  0  0  0  0  0  0  0  0  0  0
   -1.4840   -1.7107   29.9406 C   0  0  0  0  0  0  0  0  0  0  0  0
   -0.9726   -1.1454   28.7719 C   0  0  0  0  0  0  0  0  0  0  0  0
   -0.0616   -0.0990   28.8488 C   0  0  0  0  0  0  0  0  0  0  0  0
    0.3238    0.3889   30.0960 C   0  0  0  0  0  0  0  0  0  0  0  0
   -0.2064   -0.1651   31.2690 C   0  0  0  0  0  0  0  0  0  0  0  0
    2.5518   -3.5749   34.2190 C   0  0  0  0  0  0  0  0  0  0  0  0
    3.1340   -2.4419   34.7986 C   0  0  0  0  0  0  0  0  0  0  0  0
    3.4881   -2.3560   36.1184 O   0  0  0  0  0  0  0  0  0  0  0  0
    3.7190   -3.5773   36.8066 C   0  0  0  0  0  0  0  0  0  0  0  0
    5.6650   -1.0690   34.7537 H   0  0  0  0  0  0  0  0  0  0  0  0
    4.9159   -0.3136   36.2089 H   0  0  0  0  0  0  0  0  0  0  0  0
    5.6311    0.6882   34.9449 H   0  0  0  0  0  0  0  0  0  0  0  0
    3.0388   -0.3936   32.0738 H   0  0  0  0  0  0  0  0  0  0  0  0
    2.0106   -2.3822   31.0621 H   0  0  0  0  0  0  0  0  0  0  0  0
    2.5770   -4.9145   30.4706 H   0  0  0  0  0  0  0  0  0  0  0  0
    1.2051   -6.6655   29.4700 H   0  0  0  0  0  0  0  0  0  0  0  0
   -1.6026   -6.3940   34.8529 H   0  0  0  0  0  0  0  0  0  0  0  0
   -2.0547   -8.0483   34.6607 H   0  0  0  0  0  0  0  0  0  0  0  0
   -0.6088   -3.5891   31.5707 H   0  0  0  0  0  0  0  0  0  0  0  0
   -1.3279   -1.4102   33.3808 H   0  0  0  0  0  0  0  0  0  0  0  0
   -2.6855   -2.0803   32.4397 H   0  0  0  0  0  0  0  0  0  0  0  0
   -2.1599   -2.5565   29.8461 H   0  0  0  0  0  0  0  0  0  0  0  0
   -1.2888   -1.5248   27.8022 H   0  0  0  0  0  0  0  0  0  0  0  0
    0.3380    0.3384   27.9378 H   0  0  0  0  0  0  0  0  0  0  0  0
    1.0343    1.2094   30.1587 H   0  0  0  0  0  0  0  0  0  0  0  0
    0.1209    0.2206   32.2327 H   0  0  0  0  0  0  0  0  0  0  0  0
    2.3591   -4.4572   34.8228 H   0  0  0  0  0  0  0  0  0  0  0  0
    4.1998   -3.3382   37.7600 H   0  0  0  0  0  0  0  0  0  0  0  0
    4.3946   -4.2341   36.2479 H   0  0  0  0  0  0  0  0  0  0  0  0
    2.7735   -4.0820   37.0290 H   0  0  0  0  0  0  0  0  0  0  0  0
  1  2  1  0
  2  3  1  0
  3  4  2  0
  4  5  1  0
  5  6  2  0
  6  7  1  0
  7  8  1  0
  8  9  2  0
  9 10  1  0
 10 11  2  0
 11 12  1  0
 12 13  2  0
 13 14  1  0
 13 15  1  0
 15 16  1  0
 16 17  1  0
 17 18  2  0
 17 19  1  0
 19 20  1  0
 20 21  1  0
 21 22  2  0
 22 23  1  0
 23 24  2  0
 24 25  1  0
 25 26  2  0
  6 27  1  0
 27 28  2  0
 28 29  1  0
 29 30  1  0
 28  3  1  0
 16  7  2  0
 26 21  1  0
 15 10  1  0
  1 31  1  0
  1 32  1  0
  1 33  1  0
  4 34  1  0
  5 35  1  0
  8 36  1  0
  9 37  1  0
 14 38  1  0
 14 39  1  0
 19 40  1  0
 20 41  1  0
 20 42  1  0
 22 43  1  0
 23 44  1  0
 24 45  1  0
 25 46  1  0
 26 47  1  0
 27 48  1  0
 30 49  1  0
 30 50  1  0
 30 51  1  0
M  END
>  <Energy>  (31) 
83.857692321154829

>  <compound_id>  (31) 
3848

>  <target_id>  (31) 
1

>  <reference_id>  (31) 
135

>  <inspiration_ids>  (31) 
[135, 133]

>  <energy_score>  (31) 
-28.13154538949044

>  <distance_score>  (31) 
0.7423525240007982

>  <path>  (31) 
/opt/xchem-fragalysis-2/maxwin/BulkDock/SCRATCH/505735/C3848-P135/C3848-P135.minimised.mol

>  <scratch_subdir>  (31) 
/opt/xchem-fragalysis-2/maxwin/BulkDock/SCRATCH/505735/C3848-P135

>  <fragmenstein_runtime>  (31) 
5.775666236877441

>  <fragmenstein_outcome>  (31) 
acceptable

>  <fragmenstein_mode>  (31) 
expansion

>  <fragmenstein_error>  (31) 


$$$$
C3848-P133
     RDKit          3D

 51 54  0  0  0  0  0  0  0  0999 V2000
    5.0585   -0.2610   35.1328 C   0  0  0  0  0  0  0  0  0  0  0  0
    3.8056   -0.1462   34.4642 O   0  0  0  0  0  0  0  0  0  0  0  0
    3.3007   -1.3446   34.0304 C   0  0  0  0  0  0  0  0  0  0  0  0
    2.8964   -1.3615   32.6946 C   0  0  0  0  0  0  0  0  0  0  0  0
    2.3163   -2.5036   32.1447 C   0  0  0  0  0  0  0  0  0  0  0  0
    2.1109   -3.6367   32.9367 C   0  0  0  0  0  0  0  0  0  0  0  0
    1.3857   -4.8202   32.3974 C   0  0  0  0  0  0  0  0  0  0  0  0
    1.7038   -5.3840   31.0838 C   0  0  0  0  0  0  0  0  0  0  0  0
    0.9314   -6.3180   30.5030 C   0  0  0  0  0  0  0  0  0  0  0  0
   -0.1187   -6.9218   31.2329 C   0  0  0  0  0  0  0  0  0  0  0  0
   -0.9376   -7.9084   30.9571 N   0  0  0  0  0  0  0  0  0  0  0  0
   -1.6476   -8.1731   32.1018 N   0  0  0  0  0  0  0  0  0  0  0  0
   -1.2792   -7.3235   33.0389 C   0  0  0  0  0  0  0  0  0  0  0  0
   -1.6004   -7.3743   34.3506 N   0  0  0  0  0  0  0  0  0  0  0  0
   -0.3867   -6.4199   32.4949 N   0  0  0  0  0  0  0  0  0  0  0  0
    0.2520   -5.2891   32.9958 C   0  0  0  0  0  0  0  0  0  0  0  0
   -0.5150   -4.2122   33.6879 C   0  0  0  0  0  0  0  0  0  0  0  0
   -0.6428   -4.0827   34.8395 O   0  0  0  0  0  0  0  0  0  0  0  0
   -0.9788   -3.3017   32.5122 N   0  0  0  0  0  0  0  0  0  0  0  0
   -1.6049   -2.0105   32.5253 C   0  0  0  0  0  0  0  0  0  0  0  0
   -1.0979   -1.2920   31.2798 C   0  0  0  0  0  0  0  0  0  0  0  0
   -1.4205   -1.7843   30.0030 C   0  0  0  0  0  0  0  0  0  0  0  0
   -0.8962   -1.2096   28.8440 C   0  0  0  0  0  0  0  0  0  0  0  0
   -0.0079   -0.1461   28.9393 C   0  0  0  0  0  0  0  0  0  0  0  0
    0.3434    0.3454   30.1952 C   0  0  0  0  0  0  0  0  0  0  0  0
   -0.2018   -0.2187   31.3578 C   0  0  0  0  0  0  0  0  0  0  0  0
    2.5338   -3.6182   34.2800 C   0  0  0  0  0  0  0  0  0  0  0  0
    3.1237   -2.4768   34.8378 C   0  0  0  0  0  0  0  0  0  0  0  0
    3.4853   -2.3716   36.1541 O   0  0  0  0  0  0  0  0  0  0  0  0
    3.7247   -3.5826   36.8566 C   0  0  0  0  0  0  0  0  0  0  0  0
    5.6566   -1.1074   34.7756 H   0  0  0  0  0  0  0  0  0  0  0  0
    4.9060   -0.3223   36.2142 H   0  0  0  0  0  0  0  0  0  0  0  0
    5.6260    0.6533   34.9324 H   0  0  0  0  0  0  0  0  0  0  0  0
    3.0228   -0.4718   32.0827 H   0  0  0  0  0  0  0  0  0  0  0  0
    1.9832   -2.4704   31.1094 H   0  0  0  0  0  0  0  0  0  0  0  0
    2.5424   -4.9590   30.5368 H   0  0  0  0  0  0  0  0  0  0  0  0
    1.1578   -6.6824   29.5124 H   0  0  0  0  0  0  0  0  0  0  0  0
   -1.0778   -6.8390   35.0394 H   0  0  0  0  0  0  0  0  0  0  0  0
   -1.8069   -8.3256   34.6861 H   0  0  0  0  0  0  0  0  0  0  0  0
   -0.6301   -3.6731   31.6381 H   0  0  0  0  0  0  0  0  0  0  0  0
   -1.3433   -1.4866   33.4488 H   0  0  0  0  0  0  0  0  0  0  0  0
   -2.6901   -2.1421   32.4799 H   0  0  0  0  0  0  0  0  0  0  0  0
   -2.0801   -2.6405   29.8936 H   0  0  0  0  0  0  0  0  0  0  0  0
   -1.1879   -1.5933   27.8683 H   0  0  0  0  0  0  0  0  0  0  0  0
    0.3986    0.3024   28.0370 H   0  0  0  0  0  0  0  0  0  0  0  0
    1.0363    1.1795   30.2739 H   0  0  0  0  0  0  0  0  0  0  0  0
    0.0971    0.1738   32.3281 H   0  0  0  0  0  0  0  0  0  0  0  0
    2.3399   -4.4885   34.8999 H   0  0  0  0  0  0  0  0  0  0  0  0
    4.2143   -3.3297   37.8020 H   0  0  0  0  0  0  0  0  0  0  0  0
    4.3960   -4.2462   36.3008 H   0  0  0  0  0  0  0  0  0  0  0  0
    2.7823   -4.0856   37.0951 H   0  0  0  0  0  0  0  0  0  0  0  0
  1  2  1  0
  2  3  1  0
  3  4  2  0
  4  5  1  0
  5  6  2  0
  6  7  1  0
  7  8  1  0
  8  9  2  0
  9 10  1  0
 10 11  2  0
 11 12  1  0
 12 13  2  0
 13 14  1  0
 13 15  1  0
 15 16  1  0
 16 17  1  0
 17 18  2  0
 17 19  1  0
 19 20  1  0
 20 21  1  0
 21 22  2  0
 22 23  1  0
 23 24  2  0
 24 25  1  0
 25 26  2  0
  6 27  1  0
 27 28  2  0
 28 29  1  0
 29 30  1  0
 28  3  1  0
 16  7  2  0
 26 21  1  0
 15 10  1  0
  1 31  1  0
  1 32  1  0
  1 33  1  0
  4 34  1  0
  5 35  1  0
  8 36  1  0
  9 37  1  0
 14 38  1  0
 14 39  1  0
 19 40  1  0
 20 41  1  0
 20 42  1  0
 22 43  1  0
 23 44  1  0
 24 45  1  0
 25 46  1  0
 26 47  1  0
 27 48  1  0
 30 49  1  0
 30 50  1  0
 30 51  1  0
M  END
>  <Energy>  (32) 
85.357932453651287

>  <compound_id>  (32) 
3848

>  <target_id>  (32) 
1

>  <reference_id>  (32) 
133

>  <inspiration_ids>  (32) 
[135, 133]

>  <energy_score>  (32) 
-26.631305256993983

>  <distance_score>  (32) 
0.737675200194692

>  <path>  (32) 
/opt/xchem-fragalysis-2/maxwin/BulkDock/SCRATCH/505735/C3848-P133/C3848-P133.minimised.mol

>  <scratch_subdir>  (32) 
/opt/xchem-fragalysis-2/maxwin/BulkDock/SCRATCH/505735/C3848-P133

>  <fragmenstein_runtime>  (32) 
6.107839584350586

>  <fragmenstein_outcome>  (32) 
acceptable

>  <fragmenstein_mode>  (32) 
expansion

>  <fragmenstein_error>  (32) 


$$$$
C3905-P135
     RDKit          3D

 56 58  0  0  0  0  0  0  0  0999 V2000
    1.6020   -3.5292   31.3234 C   0  0  0  0  0  0  0  0  0  0  0  0
    0.6069   -3.5007   32.4595 N   0  0  0  0  0  0  0  0  0  0  0  0
    0.7458   -1.9931   32.2522 C   0  0  0  0  0  0  0  0  0  0  0  0
    0.4012   -1.2517   30.9593 C   0  0  0  0  0  0  0  0  0  0  0  0
    1.3513   -0.3789   30.3975 C   0  0  0  0  0  0  0  0  0  0  0  0
    1.1026    0.2642   29.1835 C   0  0  0  0  0  0  0  0  0  0  0  0
   -0.0977    0.0452   28.5152 C   0  0  0  0  0  0  0  0  0  0  0  0
   -1.0568   -0.7962   29.0702 C   0  0  0  0  0  0  0  0  0  0  0  0
   -0.8209   -1.4211   30.2963 C   0  0  0  0  0  0  0  0  0  0  0  0
   -0.4849   -4.3864   32.1823 C   0  0  0  0  0  0  0  0  0  0  0  0
   -1.5417   -4.1823   31.6297 O   0  0  0  0  0  0  0  0  0  0  0  0
   -0.2819   -5.8203   32.8017 C   0  0  0  0  0  0  0  0  0  0  0  0
    1.0201   -6.2146   33.3045 N   0  0  0  0  0  0  0  0  0  0  0  0
    1.3138   -5.8354   34.6768 C   0  0  0  0  0  0  0  0  0  0  0  0
    2.3678   -6.8322   35.2581 C   0  0  0  0  0  0  0  0  0  0  0  0
    2.6361   -7.8467   34.6754 O   0  0  0  0  0  0  0  0  0  0  0  0
    2.8654   -6.3030   36.4956 N   0  0  0  0  0  0  0  0  0  0  0  0
    3.7654   -6.8627   37.4666 C   0  0  0  0  0  0  0  0  0  0  0  0
    3.0678   -7.0941   38.7774 C   0  0  0  0  0  0  0  0  0  0  0  0
    3.5133   -6.4687   39.9492 C   0  0  0  0  0  0  0  0  0  0  0  0
    2.8759   -6.7129   41.1678 C   0  0  0  0  0  0  0  0  0  0  0  0
    1.7910   -7.5854   41.2286 C   0  0  0  0  0  0  0  0  0  0  0  0
    1.3405   -8.2142   40.0716 C   0  0  0  0  0  0  0  0  0  0  0  0
    1.9734   -7.9681   38.8535 C   0  0  0  0  0  0  0  0  0  0  0  0
   -0.6449   -6.8235   31.8313 N   0  0  0  0  0  0  0  0  0  0  0  0
   -1.3092   -8.0103   32.2508 C   0  0  0  0  0  0  0  0  0  0  0  0
   -1.2785   -8.8902   31.0841 N   0  0  0  0  0  0  0  0  0  0  0  0
   -0.4363   -8.2617   30.1512 N   0  0  0  0  0  0  0  0  0  0  0  0
    0.0258   -7.0500   30.6463 C   0  0  0  0  0  0  0  0  0  0  0  0
    0.9154   -6.3845   30.1427 O   0  0  0  0  0  0  0  0  0  0  0  0
    1.9981   -4.5495   31.3131 H   0  0  0  0  0  0  0  0  0  0  0  0
    1.1401   -3.4541   30.3295 H   0  0  0  0  0  0  0  0  0  0  0  0
    2.5301   -2.9495   31.4513 H   0  0  0  0  0  0  0  0  0  0  0  0
    1.6871   -1.6380   32.7063 H   0  0  0  0  0  0  0  0  0  0  0  0
   -0.0063   -1.6092   32.9602 H   0  0  0  0  0  0  0  0  0  0  0  0
    2.3051   -0.2072   30.8912 H   0  0  0  0  0  0  0  0  0  0  0  0
    1.8496    0.9229   28.7488 H   0  0  0  0  0  0  0  0  0  0  0  0
   -0.2913    0.5212   27.5578 H   0  0  0  0  0  0  0  0  0  0  0  0
   -1.9851   -0.9816   28.5343 H   0  0  0  0  0  0  0  0  0  0  0  0
   -1.5965   -2.0625   30.7017 H   0  0  0  0  0  0  0  0  0  0  0  0
   -1.0270   -5.8815   33.6057 H   0  0  0  0  0  0  0  0  0  0  0  0
    1.7565   -5.9513   32.6614 H   0  0  0  0  0  0  0  0  0  0  0  0
    1.7029   -4.8133   34.7166 H   0  0  0  0  0  0  0  0  0  0  0  0
    0.4282   -5.9140   35.3179 H   0  0  0  0  0  0  0  0  0  0  0  0
    2.4741   -5.3800   36.6410 H   0  0  0  0  0  0  0  0  0  0  0  0
    4.1667   -7.8077   37.0848 H   0  0  0  0  0  0  0  0  0  0  0  0
    4.5968   -6.1590   37.5773 H   0  0  0  0  0  0  0  0  0  0  0  0
    4.3647   -5.7927   39.9274 H   0  0  0  0  0  0  0  0  0  0  0  0
    3.2306   -6.2287   42.0740 H   0  0  0  0  0  0  0  0  0  0  0  0
    1.3030   -7.7864   42.1787 H   0  0  0  0  0  0  0  0  0  0  0  0
    0.5109   -8.9167   40.1179 H   0  0  0  0  0  0  0  0  0  0  0  0
    1.6150   -8.4825   37.9651 H   0  0  0  0  0  0  0  0  0  0  0  0
   -2.3257   -7.7934   32.5465 H   0  0  0  0  0  0  0  0  0  0  0  0
   -0.7735   -8.4388   33.0974 H   0  0  0  0  0  0  0  0  0  0  0  0
   -0.8501   -9.7773   31.3602 H   0  0  0  0  0  0  0  0  0  0  0  0
    0.1859   -8.8000   29.5520 H   0  0  0  0  0  0  0  0  0  0  0  0
  1  2  1  0
  2  3  1  0
  3  4  1  0
  4  5  2  0
  5  6  1  0
  6  7  2  0
  7  8  1  0
  8  9  2  0
  2 10  1  0
 10 11  2  0
 10 12  1  0
 12 13  1  0
 13 14  1  0
 14 15  1  0
 15 16  2  0
 15 17  1  0
 17 18  1  0
 18 19  1  0
 19 20  2  0
 20 21  1  0
 21 22  2  0
 22 23  1  0
 23 24  2  0
 12 25  1  0
 25 26  1  0
 26 27  1  0
 27 28  1  0
 28 29  1  0
 29 30  2  0
  9  4  1  0
 24 19  1  0
 29 25  1  0
  1 31  1  0
  1 32  1  0
  1 33  1  0
  3 34  1  0
  3 35  1  0
  5 36  1  0
  6 37  1  0
  7 38  1  0
  8 39  1  0
  9 40  1  0
 12 41  1  0
 13 42  1  0
 14 43  1  0
 14 44  1  0
 17 45  1  0
 18 46  1  0
 18 47  1  0
 20 48  1  0
 21 49  1  0
 22 50  1  0
 23 51  1  0
 24 52  1  0
 26 53  1  0
 26 54  1  0
 27 55  1  0
 28 56  1  0
M  END
>  <Energy>  (33) 
127.41725136660558

>  <compound_id>  (33) 
3905

>  <target_id>  (33) 
1

>  <reference_id>  (33) 
135

>  <inspiration_ids>  (33) 
[135, 140]

>  <energy_score>  (33) 
50.64314096749571

>  <distance_score>  (33) 
1.0546096992513627

>  <path>  (33) 
/opt/xchem-fragalysis-2/maxwin/BulkDock/SCRATCH/505735/C3905-P135/C3905-P135.minimised.mol

>  <scratch_subdir>  (33) 
/opt/xchem-fragalysis-2/maxwin/BulkDock/SCRATCH/505735/C3905-P135

>  <fragmenstein_runtime>  (33) 
8.842315673828125

>  <fragmenstein_outcome>  (33) 
too moved

>  <fragmenstein_mode>  (33) 
expansion

>  <fragmenstein_error>  (33) 


$$$$
C3905-P140
     RDKit          3D

 56 58  0  0  0  0  0  0  0  0999 V2000
    1.4371   -2.9907   31.6243 C   0  0  0  0  0  0  0  0  0  0  0  0
    0.2860   -2.9692   32.5978 N   0  0  0  0  0  0  0  0  0  0  0  0
    0.3626   -1.4674   32.3165 C   0  0  0  0  0  0  0  0  0  0  0  0
    0.1533   -0.8332   30.9414 C   0  0  0  0  0  0  0  0  0  0  0  0
    1.1426    0.0197   30.4189 C   0  0  0  0  0  0  0  0  0  0  0  0
    1.0170    0.5576   29.1370 C   0  0  0  0  0  0  0  0  0  0  0  0
   -0.0978    0.2525   28.3622 C   0  0  0  0  0  0  0  0  0  0  0  0
   -1.0957   -0.5706   28.8751 C   0  0  0  0  0  0  0  0  0  0  0  0
   -0.9833   -1.0910   30.1654 C   0  0  0  0  0  0  0  0  0  0  0  0
   -0.6941   -3.9406   32.2228 C   0  0  0  0  0  0  0  0  0  0  0  0
   -1.6662   -3.8413   31.5109 O   0  0  0  0  0  0  0  0  0  0  0  0
   -0.4943   -5.3216   32.9487 C   0  0  0  0  0  0  0  0  0  0  0  0
    0.4333   -5.4399   34.0798 N   0  0  0  0  0  0  0  0  0  0  0  0
    1.8457   -5.5902   33.7803 C   0  0  0  0  0  0  0  0  0  0  0  0
    2.4968   -6.5196   34.8377 C   0  0  0  0  0  0  0  0  0  0  0  0
    2.6658   -7.6744   34.5595 O   0  0  0  0  0  0  0  0  0  0  0  0
    2.8675   -5.7745   36.0029 N   0  0  0  0  0  0  0  0  0  0  0  0
    3.6385   -6.1510   37.1591 C   0  0  0  0  0  0  0  0  0  0  0  0
    2.8105   -6.4117   38.3862 C   0  0  0  0  0  0  0  0  0  0  0  0
    3.2287   -5.9155   39.6307 C   0  0  0  0  0  0  0  0  0  0  0  0
    2.5257   -6.2271   40.7965 C   0  0  0  0  0  0  0  0  0  0  0  0
    1.4020   -7.0461   40.7348 C   0  0  0  0  0  0  0  0  0  0  0  0
    0.9802   -7.5507   39.5083 C   0  0  0  0  0  0  0  0  0  0  0  0
    1.6787   -7.2369   38.3411 C   0  0  0  0  0  0  0  0  0  0  0  0
   -0.5011   -6.4548   32.0555 N   0  0  0  0  0  0  0  0  0  0  0  0
   -1.2442   -7.6327   32.3574 C   0  0  0  0  0  0  0  0  0  0  0  0
   -1.1421   -8.4674   31.1570 N   0  0  0  0  0  0  0  0  0  0  0  0
   -0.2022   -7.8232   30.3375 N   0  0  0  0  0  0  0  0  0  0  0  0
    0.2276   -6.6272   30.9008 C   0  0  0  0  0  0  0  0  0  0  0  0
    1.1091   -5.9175   30.4479 O   0  0  0  0  0  0  0  0  0  0  0  0
    1.8572   -3.9973   31.7031 H   0  0  0  0  0  0  0  0  0  0  0  0
    1.1323   -2.9683   30.5691 H   0  0  0  0  0  0  0  0  0  0  0  0
    2.3118   -2.3699   31.8740 H   0  0  0  0  0  0  0  0  0  0  0  0
    1.2102   -1.0217   32.8651 H   0  0  0  0  0  0  0  0  0  0  0  0
   -0.5002   -1.0961   32.8927 H   0  0  0  0  0  0  0  0  0  0  0  0
    2.0303    0.2584   31.0001 H   0  0  0  0  0  0  0  0  0  0  0  0
    1.7935    1.2035   28.7362 H   0  0  0  0  0  0  0  0  0  0  0  0
   -0.1939    0.6496   27.3561 H   0  0  0  0  0  0  0  0  0  0  0  0
   -1.9592   -0.8212   28.2631 H   0  0  0  0  0  0  0  0  0  0  0  0
   -1.7870   -1.7174   30.5401 H   0  0  0  0  0  0  0  0  0  0  0  0
   -1.4605   -5.4013   33.4643 H   0  0  0  0  0  0  0  0  0  0  0  0
    0.2890   -4.6234   34.6739 H   0  0  0  0  0  0  0  0  0  0  0  0
    2.0383   -6.0564   32.8125 H   0  0  0  0  0  0  0  0  0  0  0  0
    2.3628   -4.6255   33.7825 H   0  0  0  0  0  0  0  0  0  0  0  0
    2.6359   -4.8003   35.8583 H   0  0  0  0  0  0  0  0  0  0  0  0
    4.2082   -7.0551   36.9164 H   0  0  0  0  0  0  0  0  0  0  0  0
    4.3502   -5.3372   37.3344 H   0  0  0  0  0  0  0  0  0  0  0  0
    4.1177   -5.2935   39.7071 H   0  0  0  0  0  0  0  0  0  0  0  0
    2.8626   -5.8425   41.7554 H   0  0  0  0  0  0  0  0  0  0  0  0
    0.8632   -7.3074   41.6416 H   0  0  0  0  0  0  0  0  0  0  0  0
    0.1241   -8.2191   39.4645 H   0  0  0  0  0  0  0  0  0  0  0  0
    1.3468   -7.6709   37.4010 H   0  0  0  0  0  0  0  0  0  0  0  0
   -2.2787   -7.3905   32.5425 H   0  0  0  0  0  0  0  0  0  0  0  0
   -0.8053   -8.1015   33.2374 H   0  0  0  0  0  0  0  0  0  0  0  0
   -0.7692   -9.3811   31.4274 H   0  0  0  0  0  0  0  0  0  0  0  0
    0.4014   -8.3321   29.6979 H   0  0  0  0  0  0  0  0  0  0  0  0
  1  2  1  0
  2  3  1  0
  3  4  1  0
  4  5  2  0
  5  6  1  0
  6  7  2  0
  7  8  1  0
  8  9  2  0
  2 10  1  0
 10 11  2  0
 10 12  1  0
 12 13  1  0
 13 14  1  0
 14 15  1  0
 15 16  2  0
 15 17  1  0
 17 18  1  0
 18 19  1  0
 19 20  2  0
 20 21  1  0
 21 22  2  0
 22 23  1  0
 23 24  2  0
 12 25  1  0
 25 26  1  0
 26 27  1  0
 27 28  1  0
 28 29  1  0
 29 30  2  0
  9  4  1  0
 24 19  1  0
 29 25  1  0
  1 31  1  0
  1 32  1  0
  1 33  1  0
  3 34  1  0
  3 35  1  0
  5 36  1  0
  6 37  1  0
  7 38  1  0
  8 39  1  0
  9 40  1  0
 12 41  1  0
 13 42  1  0
 14 43  1  0
 14 44  1  0
 17 45  1  0
 18 46  1  0
 18 47  1  0
 20 48  1  0
 21 49  1  0
 22 50  1  0
 23 51  1  0
 24 52  1  0
 26 53  1  0
 26 54  1  0
 27 55  1  0
 28 56  1  0
M  END
>  <Energy>  (34) 
131.48838396507116

>  <compound_id>  (34) 
3905

>  <target_id>  (34) 
1

>  <reference_id>  (34) 
140

>  <inspiration_ids>  (34) 
[135, 140]

>  <energy_score>  (34) 
54.71427356595905

>  <distance_score>  (34) 
0.9868029454823476

>  <path>  (34) 
/opt/xchem-fragalysis-2/maxwin/BulkDock/SCRATCH/505735/C3905-P140/C3905-P140.minimised.mol

>  <scratch_subdir>  (34) 
/opt/xchem-fragalysis-2/maxwin/BulkDock/SCRATCH/505735/C3905-P140

>  <fragmenstein_runtime>  (34) 
7.721320152282715

>  <fragmenstein_outcome>  (34) 
too contorted

>  <fragmenstein_mode>  (34) 
expansion

>  <fragmenstein_error>  (34) 


$$$$
C3873-P135
     RDKit          3D

 56 60  0  0  0  0  0  0  0  0999 V2000
    3.0762   -1.6142   32.3217 C   0  0  0  0  0  0  0  0  0  0  0  0
    2.1796   -2.8013   32.2986 N   0  0  0  0  0  0  0  0  0  0  0  0
    1.1249   -1.6783   32.4331 C   0  0  0  0  0  0  0  0  0  0  0  0
    0.5157   -1.2461   31.0927 C   0  0  0  0  0  0  0  0  0  0  0  0
   -0.3524   -2.0899   30.3790 C   0  0  0  0  0  0  0  0  0  0  0  0
   -0.8329   -1.7246   29.1186 C   0  0  0  0  0  0  0  0  0  0  0  0
   -0.4588   -0.5081   28.5570 C   0  0  0  0  0  0  0  0  0  0  0  0
    0.3712    0.3560   29.2649 C   0  0  0  0  0  0  0  0  0  0  0  0
    0.8422   -0.0026   30.5298 C   0  0  0  0  0  0  0  0  0  0  0  0
    1.9571   -3.8890   33.3290 C   0  0  0  0  0  0  0  0  0  0  0  0
    2.3827   -4.0027   34.4184 O   0  0  0  0  0  0  0  0  0  0  0  0
    1.0742   -4.9448   32.6876 C   0  0  0  0  0  0  0  0  0  0  0  0
    1.2182   -5.1498   31.2354 C   0  0  0  0  0  0  0  0  0  0  0  0
    0.5207   -6.0698   30.5570 C   0  0  0  0  0  0  0  0  0  0  0  0
   -0.3654   -6.9201   31.2443 C   0  0  0  0  0  0  0  0  0  0  0  0
   -1.1535   -7.8866   30.8325 N   0  0  0  0  0  0  0  0  0  0  0  0
   -1.7776   -8.3989   31.9361 N   0  0  0  0  0  0  0  0  0  0  0  0
   -1.3624   -7.7259   32.9883 C   0  0  0  0  0  0  0  0  0  0  0  0
   -0.4629   -6.7641   32.6177 N   0  0  0  0  0  0  0  0  0  0  0  0
    0.2341   -5.7824   33.3505 C   0  0  0  0  0  0  0  0  0  0  0  0
    0.0793   -5.7055   34.7645 N   0  0  0  0  0  0  0  0  0  0  0  0
   -0.2449   -4.5192   35.5817 C   0  0  0  0  0  0  0  0  0  0  0  0
    0.0282   -4.8932   37.0450 C   0  0  0  0  0  0  0  0  0  0  0  0
    1.1993   -5.8875   37.0581 C   0  0  0  0  0  0  0  0  0  0  0  0
    1.4158   -6.7312   38.2921 C   0  0  0  0  0  0  0  0  0  0  0  0
    2.6280   -7.4298   38.4327 C   0  0  0  0  0  0  0  0  0  0  0  0
    2.8453   -8.2789   39.5195 C   0  0  0  0  0  0  0  0  0  0  0  0
    1.8572   -8.4435   40.4846 C   0  0  0  0  0  0  0  0  0  0  0  0
    0.6600   -7.7447   40.3741 C   0  0  0  0  0  0  0  0  0  0  0  0
    0.4439   -6.8887   39.2923 C   0  0  0  0  0  0  0  0  0  0  0  0
    0.7766   -6.9741   35.6794 S   0  0  0  0  0  0  0  0  0  0  0  0
    1.9367   -7.4777   34.9687 O   0  0  0  0  0  0  0  0  0  0  0  0
   -0.3276   -7.8401   36.0307 O   0  0  0  0  0  0  0  0  0  0  0  0
    3.0520   -0.9621   31.4434 H   0  0  0  0  0  0  0  0  0  0  0  0
    4.0708   -2.0794   32.2345 H   0  0  0  0  0  0  0  0  0  0  0  0
    3.1665   -1.1147   33.2989 H   0  0  0  0  0  0  0  0  0  0  0  0
    1.2819   -0.8412   33.1386 H   0  0  0  0  0  0  0  0  0  0  0  0
    0.2801   -2.1744   32.9411 H   0  0  0  0  0  0  0  0  0  0  0  0
   -0.6560   -3.0469   30.7908 H   0  0  0  0  0  0  0  0  0  0  0  0
   -1.4934   -2.3899   28.5644 H   0  0  0  0  0  0  0  0  0  0  0  0
   -0.8264   -0.2351   27.5701 H   0  0  0  0  0  0  0  0  0  0  0  0
    0.6492    1.3121   28.8276 H   0  0  0  0  0  0  0  0  0  0  0  0
    1.4868    0.6967   31.0575 H   0  0  0  0  0  0  0  0  0  0  0  0
    1.9255   -4.5306   30.6877 H   0  0  0  0  0  0  0  0  0  0  0  0
    0.6588   -6.1811   29.4948 H   0  0  0  0  0  0  0  0  0  0  0  0
   -1.6834   -7.8916   34.0053 H   0  0  0  0  0  0  0  0  0  0  0  0
    0.3256   -3.6322   35.3146 H   0  0  0  0  0  0  0  0  0  0  0  0
   -1.3000   -4.2622   35.4638 H   0  0  0  0  0  0  0  0  0  0  0  0
    0.2330   -4.0100   37.6588 H   0  0  0  0  0  0  0  0  0  0  0  0
   -0.8886   -5.3507   37.4347 H   0  0  0  0  0  0  0  0  0  0  0  0
    2.1261   -5.3671   36.7892 H   0  0  0  0  0  0  0  0  0  0  0  0
    3.4110   -7.3397   37.6813 H   0  0  0  0  0  0  0  0  0  0  0  0
    3.7768   -8.8328   39.6016 H   0  0  0  0  0  0  0  0  0  0  0  0
    2.0114   -9.1312   41.3120 H   0  0  0  0  0  0  0  0  0  0  0  0
   -0.1144   -7.8827   41.1244 H   0  0  0  0  0  0  0  0  0  0  0  0
   -0.5119   -6.3752   39.2498 H   0  0  0  0  0  0  0  0  0  0  0  0
  1  2  1  0
  2  3  1  0
  3  4  1  0
  4  5  2  0
  5  6  1  0
  6  7  2  0
  7  8  1  0
  8  9  2  0
  2 10  1  0
 10 11  2  0
 10 12  1  0
 12 13  1  0
 13 14  2  0
 14 15  1  0
 15 16  2  0
 16 17  1  0
 17 18  2  0
 18 19  1  0
 19 20  1  0
 20 21  1  0
 21 22  1  0
 22 23  1  0
 23 24  1  0
 24 25  1  0
 25 26  2  0
 26 27  1  0
 27 28  2  0
 28 29  1  0
 29 30  2  0
 24 31  1  0
 31 32  2  0
 31 33  2  0
  9  4  1  0
 20 12  2  0
 31 21  1  0
 19 15  1  0
 30 25  1  0
  1 34  1  0
  1 35  1  0
  1 36  1  0
  3 37  1  0
  3 38  1  0
  5 39  1  0
  6 40  1  0
  7 41  1  0
  8 42  1  0
  9 43  1  0
 13 44  1  0
 14 45  1  0
 18 46  1  0
 22 47  1  0
 22 48  1  0
 23 49  1  0
 23 50  1  0
 24 51  1  0
 26 52  1  0
 27 53  1  0
 28 54  1  0
 29 55  1  0
 30 56  1  0
M  END
>  <Energy>  (35) 
158.50822394550755

>  <compound_id>  (35) 
3873

>  <target_id>  (35) 
1

>  <reference_id>  (35) 
135

>  <inspiration_ids>  (35) 
[135, 144]

>  <energy_score>  (35) 
28.499879140776883

>  <distance_score>  (35) 
0.6181840268938384

>  <path>  (35) 
/opt/xchem-fragalysis-2/maxwin/BulkDock/SCRATCH/505735/C3873-P135/C3873-P135.minimised.mol

>  <scratch_subdir>  (35) 
/opt/xchem-fragalysis-2/maxwin/BulkDock/SCRATCH/505735/C3873-P135

>  <fragmenstein_runtime>  (35) 
5.281347751617432

>  <fragmenstein_outcome>  (35) 
too contorted

>  <fragmenstein_mode>  (35) 
expansion

>  <fragmenstein_error>  (35) 


$$$$
C3873-P144
     RDKit          3D

 56 60  0  0  0  0  0  0  0  0999 V2000
    2.9502   -1.5502   32.2382 C   0  0  0  0  0  0  0  0  0  0  0  0
    2.0156   -2.7075   32.2492 N   0  0  0  0  0  0  0  0  0  0  0  0
    0.9964   -1.5460   32.3247 C   0  0  0  0  0  0  0  0  0  0  0  0
    0.4560   -1.0919   30.9649 C   0  0  0  0  0  0  0  0  0  0  0  0
   -0.4193   -1.8987   30.2203 C   0  0  0  0  0  0  0  0  0  0  0  0
   -0.8132   -1.5292   28.9326 C   0  0  0  0  0  0  0  0  0  0  0  0
   -0.3599   -0.3366   28.3797 C   0  0  0  0  0  0  0  0  0  0  0  0
    0.4663    0.4999   29.1235 C   0  0  0  0  0  0  0  0  0  0  0  0
    0.8592    0.1331   30.4121 C   0  0  0  0  0  0  0  0  0  0  0  0
    1.7445   -3.7443   33.3166 C   0  0  0  0  0  0  0  0  0  0  0  0
    2.1519   -3.8283   34.4151 O   0  0  0  0  0  0  0  0  0  0  0  0
    0.8583   -4.8279   32.6938 C   0  0  0  0  0  0  0  0  0  0  0  0
    0.8269   -4.9547   31.2248 C   0  0  0  0  0  0  0  0  0  0  0  0
    0.0872   -5.8731   30.5898 C   0  0  0  0  0  0  0  0  0  0  0  0
   -0.6551   -6.8033   31.3405 C   0  0  0  0  0  0  0  0  0  0  0  0
   -1.4342   -7.7876   30.9670 N   0  0  0  0  0  0  0  0  0  0  0  0
   -1.9198   -8.3735   32.1006 N   0  0  0  0  0  0  0  0  0  0  0  0
   -1.4213   -7.7352   33.1379 C   0  0  0  0  0  0  0  0  0  0  0  0
   -0.5974   -6.7225   32.7237 N   0  0  0  0  0  0  0  0  0  0  0  0
    0.1494   -5.7452   33.4082 C   0  0  0  0  0  0  0  0  0  0  0  0
    0.2489   -5.7087   34.8194 N   0  0  0  0  0  0  0  0  0  0  0  0
   -0.3189   -4.7163   35.7301 C   0  0  0  0  0  0  0  0  0  0  0  0
    0.5752   -4.7297   36.9873 C   0  0  0  0  0  0  0  0  0  0  0  0
    1.4797   -5.9874   36.9892 C   0  0  0  0  0  0  0  0  0  0  0  0
    1.5735   -6.7825   38.2690 C   0  0  0  0  0  0  0  0  0  0  0  0
    2.8026   -7.3553   38.6353 C   0  0  0  0  0  0  0  0  0  0  0  0
    2.9170   -8.1238   39.7959 C   0  0  0  0  0  0  0  0  0  0  0  0
    1.8051   -8.3357   40.6059 C   0  0  0  0  0  0  0  0  0  0  0  0
    0.5788   -7.7796   40.2558 C   0  0  0  0  0  0  0  0  0  0  0  0
    0.4638   -7.0087   39.0974 C   0  0  0  0  0  0  0  0  0  0  0  0
    0.8537   -7.0357   35.6710 S   0  0  0  0  0  0  0  0  0  0  0  0
    1.9033   -7.6409   34.8736 O   0  0  0  0  0  0  0  0  0  0  0  0
   -0.3071   -7.7732   36.1095 O   0  0  0  0  0  0  0  0  0  0  0  0
    2.9783   -0.9541   31.3217 H   0  0  0  0  0  0  0  0  0  0  0  0
    3.9297   -2.0539   32.2088 H   0  0  0  0  0  0  0  0  0  0  0  0
    3.0354   -0.9972   33.1865 H   0  0  0  0  0  0  0  0  0  0  0  0
    1.1564   -0.7191   33.0411 H   0  0  0  0  0  0  0  0  0  0  0  0
    0.1144   -2.0111   32.7981 H   0  0  0  0  0  0  0  0  0  0  0  0
   -0.7951   -2.8315   30.6266 H   0  0  0  0  0  0  0  0  0  0  0  0
   -1.4693   -2.1738   28.3510 H   0  0  0  0  0  0  0  0  0  0  0  0
   -0.6637   -0.0599   27.3724 H   0  0  0  0  0  0  0  0  0  0  0  0
    0.8053    1.4396   28.6945 H   0  0  0  0  0  0  0  0  0  0  0  0
    1.5080    0.8077   30.9662 H   0  0  0  0  0  0  0  0  0  0  0  0
    1.4275   -4.2786   30.6213 H   0  0  0  0  0  0  0  0  0  0  0  0
    0.0532   -5.9200   29.5107 H   0  0  0  0  0  0  0  0  0  0  0  0
   -1.6372   -7.9703   34.1689 H   0  0  0  0  0  0  0  0  0  0  0  0
   -0.3623   -3.7149   35.2934 H   0  0  0  0  0  0  0  0  0  0  0  0
   -1.3372   -5.0144   35.9975 H   0  0  0  0  0  0  0  0  0  0  0  0
    1.2179   -3.8400   36.9890 H   0  0  0  0  0  0  0  0  0  0  0  0
   -0.0474   -4.6306   37.8821 H   0  0  0  0  0  0  0  0  0  0  0  0
    2.4832   -5.6779   36.6686 H   0  0  0  0  0  0  0  0  0  0  0  0
    3.6856   -7.2169   38.0138 H   0  0  0  0  0  0  0  0  0  0  0  0
    3.8742   -8.5635   40.0633 H   0  0  0  0  0  0  0  0  0  0  0  0
    1.8895   -8.9419   41.5032 H   0  0  0  0  0  0  0  0  0  0  0  0
   -0.2961   -7.9604   40.8748 H   0  0  0  0  0  0  0  0  0  0  0  0
   -0.5177   -6.6174   38.8398 H   0  0  0  0  0  0  0  0  0  0  0  0
  1  2  1  0
  2  3  1  0
  3  4  1  0
  4  5  2  0
  5  6  1  0
  6  7  2  0
  7  8  1  0
  8  9  2  0
  2 10  1  0
 10 11  2  0
 10 12  1  0
 12 13  1  0
 13 14  2  0
 14 15  1  0
 15 16  2  0
 16 17  1  0
 17 18  2  0
 18 19  1  0
 19 20  1  0
 20 21  1  0
 21 22  1  0
 22 23  1  0
 23 24  1  0
 24 25  1  0
 25 26  2  0
 26 27  1  0
 27 28  2  0
 28 29  1  0
 29 30  2  0
 24 31  1  0
 31 32  2  0
 31 33  2  0
  9  4  1  0
 20 12  2  0
 31 21  1  0
 19 15  1  0
 30 25  1  0
  1 34  1  0
  1 35  1  0
  1 36  1  0
  3 37  1  0
  3 38  1  0
  5 39  1  0
  6 40  1  0
  7 41  1  0
  8 42  1  0
  9 43  1  0
 13 44  1  0
 14 45  1  0
 18 46  1  0
 22 47  1  0
 22 48  1  0
 23 49  1  0
 23 50  1  0
 24 51  1  0
 26 52  1  0
 27 53  1  0
 28 54  1  0
 29 55  1  0
 30 56  1  0
M  END
>  <Energy>  (36) 
162.94602685856415

>  <compound_id>  (36) 
3873

>  <target_id>  (36) 
1

>  <reference_id>  (36) 
144

>  <inspiration_ids>  (36) 
[135, 144]

>  <energy_score>  (36) 
32.93768205383407

>  <distance_score>  (36) 
0.538467614077413

>  <path>  (36) 
/opt/xchem-fragalysis-2/maxwin/BulkDock/SCRATCH/505735/C3873-P144/C3873-P144.minimised.mol

>  <scratch_subdir>  (36) 
/opt/xchem-fragalysis-2/maxwin/BulkDock/SCRATCH/505735/C3873-P144

>  <fragmenstein_runtime>  (36) 
4.858577013015747

>  <fragmenstein_outcome>  (36) 
too contorted

>  <fragmenstein_mode>  (36) 
expansion

>  <fragmenstein_error>  (36) 


$$$$
C3873-P135
     RDKit          3D

 56 60  0  0  0  0  0  0  0  0999 V2000
    3.0653   -1.5408   32.3811 C   0  0  0  0  0  0  0  0  0  0  0  0
    2.1812   -2.7360   32.3422 N   0  0  0  0  0  0  0  0  0  0  0  0
    1.1127   -1.6226   32.4667 C   0  0  0  0  0  0  0  0  0  0  0  0
    0.5066   -1.2083   31.1180 C   0  0  0  0  0  0  0  0  0  0  0  0
   -0.3702   -2.0561   30.4190 C   0  0  0  0  0  0  0  0  0  0  0  0
   -0.8439   -1.7118   29.1497 C   0  0  0  0  0  0  0  0  0  0  0  0
   -0.4573   -0.5101   28.5654 C   0  0  0  0  0  0  0  0  0  0  0  0
    0.3785    0.3599   29.2589 C   0  0  0  0  0  0  0  0  0  0  0  0
    0.8444    0.0212   30.5316 C   0  0  0  0  0  0  0  0  0  0  0  0
    1.9558   -3.8297   33.3662 C   0  0  0  0  0  0  0  0  0  0  0  0
    2.3681   -3.9429   34.4607 O   0  0  0  0  0  0  0  0  0  0  0  0
    1.0868   -4.8908   32.7114 C   0  0  0  0  0  0  0  0  0  0  0  0
    1.2139   -5.0588   31.2514 C   0  0  0  0  0  0  0  0  0  0  0  0
    0.5201   -5.9702   30.5572 C   0  0  0  0  0  0  0  0  0  0  0  0
   -0.3460   -6.8492   31.2342 C   0  0  0  0  0  0  0  0  0  0  0  0
   -1.1274   -7.8160   30.8094 N   0  0  0  0  0  0  0  0  0  0  0  0
   -1.7333   -8.3623   31.9081 N   0  0  0  0  0  0  0  0  0  0  0  0
   -1.3124   -7.7095   32.9707 C   0  0  0  0  0  0  0  0  0  0  0  0
   -0.4259   -6.7301   32.6122 N   0  0  0  0  0  0  0  0  0  0  0  0
    0.2718   -5.7618   33.3633 C   0  0  0  0  0  0  0  0  0  0  0  0
    0.1653   -5.7563   34.7837 N   0  0  0  0  0  0  0  0  0  0  0  0
   -0.1669   -4.6343   35.6845 C   0  0  0  0  0  0  0  0  0  0  0  0
    0.2660   -5.0462   37.1068 C   0  0  0  0  0  0  0  0  0  0  0  0
    1.4433   -6.0250   36.9710 C   0  0  0  0  0  0  0  0  0  0  0  0
    1.8087   -6.9215   38.1293 C   0  0  0  0  0  0  0  0  0  0  0  0
    3.0917   -7.4996   38.1583 C   0  0  0  0  0  0  0  0  0  0  0  0
    3.4540   -8.3992   39.1628 C   0  0  0  0  0  0  0  0  0  0  0  0
    2.5407   -8.7368   40.1555 C   0  0  0  0  0  0  0  0  0  0  0  0
    1.2714   -8.1669   40.1498 C   0  0  0  0  0  0  0  0  0  0  0  0
    0.9084   -7.2627   39.1486 C   0  0  0  0  0  0  0  0  0  0  0  0
    0.8977   -7.0634   35.6053 S   0  0  0  0  0  0  0  0  0  0  0  0
    1.9925   -7.5736   34.8016 O   0  0  0  0  0  0  0  0  0  0  0  0
   -0.2023   -7.9088   36.0155 O   0  0  0  0  0  0  0  0  0  0  0  0
    3.0459   -0.8851   31.5057 H   0  0  0  0  0  0  0  0  0  0  0  0
    4.0654   -1.9959   32.3043 H   0  0  0  0  0  0  0  0  0  0  0  0
    3.1387   -1.0454   33.3619 H   0  0  0  0  0  0  0  0  0  0  0  0
    0.2717   -2.1238   32.9760 H   0  0  0  0  0  0  0  0  0  0  0  0
    1.2569   -0.7755   33.1630 H   0  0  0  0  0  0  0  0  0  0  0  0
   -0.6868   -3.0003   30.8499 H   0  0  0  0  0  0  0  0  0  0  0  0
   -1.5091   -2.3818   28.6069 H   0  0  0  0  0  0  0  0  0  0  0  0
   -0.8200   -0.2529   27.5725 H   0  0  0  0  0  0  0  0  0  0  0  0
    0.6654    1.3052   28.8046 H   0  0  0  0  0  0  0  0  0  0  0  0
    1.4925    0.7263   31.0469 H   0  0  0  0  0  0  0  0  0  0  0  0
    1.9061   -4.4185   30.7086 H   0  0  0  0  0  0  0  0  0  0  0  0
    0.6418   -6.0502   29.4891 H   0  0  0  0  0  0  0  0  0  0  0  0
   -1.6190   -7.9008   33.9880 H   0  0  0  0  0  0  0  0  0  0  0  0
    0.3057   -3.6945   35.4045 H   0  0  0  0  0  0  0  0  0  0  0  0
   -1.2469   -4.4620   35.6719 H   0  0  0  0  0  0  0  0  0  0  0  0
    0.5270   -4.1757   37.7175 H   0  0  0  0  0  0  0  0  0  0  0  0
   -0.5979   -5.5223   37.5847 H   0  0  0  0  0  0  0  0  0  0  0  0
    2.3302   -5.4798   36.6276 H   0  0  0  0  0  0  0  0  0  0  0  0
    3.8199   -7.2702   37.3817 H   0  0  0  0  0  0  0  0  0  0  0  0
    4.4425   -8.8507   39.1612 H   0  0  0  0  0  0  0  0  0  0  0  0
    2.8055   -9.4600   40.9224 H   0  0  0  0  0  0  0  0  0  0  0  0
    0.5507   -8.4549   40.9114 H   0  0  0  0  0  0  0  0  0  0  0  0
   -0.1035   -6.8702   39.1736 H   0  0  0  0  0  0  0  0  0  0  0  0
  1  2  1  0
  2  3  1  0
  3  4  1  0
  4  5  2  0
  5  6  1  0
  6  7  2  0
  7  8  1  0
  8  9  2  0
  2 10  1  0
 10 11  2  0
 10 12  1  0
 12 13  1  0
 13 14  2  0
 14 15  1  0
 15 16  2  0
 16 17  1  0
 17 18  2  0
 18 19  1  0
 19 20  1  0
 20 21  1  0
 21 22  1  0
 22 23  1  0
 23 24  1  0
 24 25  1  0
 25 26  2  0
 26 27  1  0
 27 28  2  0
 28 29  1  0
 29 30  2  0
 24 31  1  0
 31 32  2  0
 31 33  2  0
  9  4  1  0
 20 12  2  0
 31 21  1  0
 19 15  1  0
 30 25  1  0
  1 34  1  0
  1 35  1  0
  1 36  1  0
  3 37  1  0
  3 38  1  0
  5 39  1  0
  6 40  1  0
  7 41  1  0
  8 42  1  0
  9 43  1  0
 13 44  1  0
 14 45  1  0
 18 46  1  0
 22 47  1  0
 22 48  1  0
 23 49  1  0
 23 50  1  0
 24 51  1  0
 26 52  1  0
 27 53  1  0
 28 54  1  0
 29 55  1  0
 30 56  1  0
M  END
>  <Energy>  (37) 
159.31332769821881

>  <compound_id>  (37) 
3873

>  <target_id>  (37) 
1

>  <reference_id>  (37) 
135

>  <inspiration_ids>  (37) 
[135, 145]

>  <energy_score>  (37) 
29.304982893489864

>  <distance_score>  (37) 
1.015974721192299

>  <path>  (37) 
/opt/xchem-fragalysis-2/maxwin/BulkDock/SCRATCH/505735/C3873-P135/C3873-P135.minimised.mol

>  <scratch_subdir>  (37) 
/opt/xchem-fragalysis-2/maxwin/BulkDock/SCRATCH/505735/C3873-P135

>  <fragmenstein_runtime>  (37) 
4.812429904937744

>  <fragmenstein_outcome>  (37) 
too moved

>  <fragmenstein_mode>  (37) 
expansion

>  <fragmenstein_error>  (37) 


$$$$
C3873-P145
     RDKit          3D

 56 60  0  0  0  0  0  0  0  0999 V2000
    3.0382   -1.4778   32.4031 C   0  0  0  0  0  0  0  0  0  0  0  0
    2.0886   -2.6200   32.3730 N   0  0  0  0  0  0  0  0  0  0  0  0
    1.0806   -1.4413   32.4812 C   0  0  0  0  0  0  0  0  0  0  0  0
    0.4937   -1.0375   31.1180 C   0  0  0  0  0  0  0  0  0  0  0  0
   -0.4841   -1.8208   30.4810 C   0  0  0  0  0  0  0  0  0  0  0  0
   -0.9113   -1.5244   29.1835 C   0  0  0  0  0  0  0  0  0  0  0  0
   -0.3952   -0.4190   28.5162 C   0  0  0  0  0  0  0  0  0  0  0  0
    0.5268    0.4043   29.1539 C   0  0  0  0  0  0  0  0  0  0  0  0
    0.9571    0.1056   30.4490 C   0  0  0  0  0  0  0  0  0  0  0  0
    1.7975   -3.6873   33.4069 C   0  0  0  0  0  0  0  0  0  0  0  0
    2.1985   -3.8119   34.5043 O   0  0  0  0  0  0  0  0  0  0  0  0
    0.8790   -4.7268   32.7608 C   0  0  0  0  0  0  0  0  0  0  0  0
    0.8375   -4.7785   31.2838 C   0  0  0  0  0  0  0  0  0  0  0  0
    0.1238   -5.6793   30.5984 C   0  0  0  0  0  0  0  0  0  0  0  0
   -0.5753   -6.6761   31.2989 C   0  0  0  0  0  0  0  0  0  0  0  0
   -1.2857   -7.6920   30.8762 N   0  0  0  0  0  0  0  0  0  0  0  0
   -1.7559   -8.3454   31.9793 N   0  0  0  0  0  0  0  0  0  0  0  0
   -1.3181   -7.7125   33.0465 C   0  0  0  0  0  0  0  0  0  0  0  0
   -0.5379   -6.6468   32.6830 N   0  0  0  0  0  0  0  0  0  0  0  0
    0.1676   -5.6785   33.4283 C   0  0  0  0  0  0  0  0  0  0  0  0
    0.1679   -5.7353   34.8527 N   0  0  0  0  0  0  0  0  0  0  0  0
   -0.1860   -4.6645   35.8033 C   0  0  0  0  0  0  0  0  0  0  0  0
    0.3173   -5.0988   37.1924 C   0  0  0  0  0  0  0  0  0  0  0  0
    1.5018   -6.0591   36.9936 C   0  0  0  0  0  0  0  0  0  0  0  0
    1.8881   -6.9907   38.1191 C   0  0  0  0  0  0  0  0  0  0  0  0
    3.1557   -7.5996   38.0897 C   0  0  0  0  0  0  0  0  0  0  0  0
    3.5305   -8.5281   39.0631 C   0  0  0  0  0  0  0  0  0  0  0  0
    2.6460   -8.8647   40.0825 C   0  0  0  0  0  0  0  0  0  0  0  0
    1.3934   -8.2631   40.1367 C   0  0  0  0  0  0  0  0  0  0  0  0
    1.0190   -7.3295   39.1675 C   0  0  0  0  0  0  0  0  0  0  0  0
    0.9397   -7.0555   35.6013 S   0  0  0  0  0  0  0  0  0  0  0  0
    2.0161   -7.5118   34.7441 O   0  0  0  0  0  0  0  0  0  0  0  0
   -0.1176   -7.9503   36.0161 O   0  0  0  0  0  0  0  0  0  0  0  0
    3.0676   -0.8372   31.5182 H   0  0  0  0  0  0  0  0  0  0  0  0
    4.0110   -1.9914   32.3431 H   0  0  0  0  0  0  0  0  0  0  0  0
    3.1333   -0.9738   33.3775 H   0  0  0  0  0  0  0  0  0  0  0  0
    1.2804   -0.5776   33.1422 H   0  0  0  0  0  0  0  0  0  0  0  0
    0.2201   -1.8803   33.0141 H   0  0  0  0  0  0  0  0  0  0  0  0
   -0.9175   -2.6784   30.9849 H   0  0  0  0  0  0  0  0  0  0  0  0
   -1.6456   -2.1544   28.6854 H   0  0  0  0  0  0  0  0  0  0  0  0
   -0.7304   -0.1956   27.5061 H   0  0  0  0  0  0  0  0  0  0  0  0
    0.9116    1.2811   28.6395 H   0  0  0  0  0  0  0  0  0  0  0  0
    1.6749    0.7748   30.9173 H   0  0  0  0  0  0  0  0  0  0  0  0
    1.4141   -4.0584   30.7082 H   0  0  0  0  0  0  0  0  0  0  0  0
    0.0962   -5.6681   29.5173 H   0  0  0  0  0  0  0  0  0  0  0  0
   -1.5436   -7.9870   34.0660 H   0  0  0  0  0  0  0  0  0  0  0  0
    0.2158   -3.6873   35.5427 H   0  0  0  0  0  0  0  0  0  0  0  0
   -1.2707   -4.5556   35.8360 H   0  0  0  0  0  0  0  0  0  0  0  0
    0.5905   -4.2379   37.8111 H   0  0  0  0  0  0  0  0  0  0  0  0
   -0.5204   -5.5942   37.6946 H   0  0  0  0  0  0  0  0  0  0  0  0
    2.3773   -5.4935   36.6536 H   0  0  0  0  0  0  0  0  0  0  0  0
    3.8610   -7.3719   37.2917 H   0  0  0  0  0  0  0  0  0  0  0  0
    4.5065   -9.0037   39.0161 H   0  0  0  0  0  0  0  0  0  0  0  0
    2.9214   -9.6100   40.8243 H   0  0  0  0  0  0  0  0  0  0  0  0
    0.6955   -8.5439   40.9217 H   0  0  0  0  0  0  0  0  0  0  0  0
    0.0216   -6.9082   39.2452 H   0  0  0  0  0  0  0  0  0  0  0  0
  1  2  1  0
  2  3  1  0
  3  4  1  0
  4  5  2  0
  5  6  1  0
  6  7  2  0
  7  8  1  0
  8  9  2  0
  2 10  1  0
 10 11  2  0
 10 12  1  0
 12 13  1  0
 13 14  2  0
 14 15  1  0
 15 16  2  0
 16 17  1  0
 17 18  2  0
 18 19  1  0
 19 20  1  0
 20 21  1  0
 21 22  1  0
 22 23  1  0
 23 24  1  0
 24 25  1  0
 25 26  2  0
 26 27  1  0
 27 28  2  0
 28 29  1  0
 29 30  2  0
 24 31  1  0
 31 32  2  0
 31 33  2  0
  9  4  1  0
 20 12  2  0
 31 21  1  0
 19 15  1  0
 30 25  1  0
  1 34  1  0
  1 35  1  0
  1 36  1  0
  3 37  1  0
  3 38  1  0
  5 39  1  0
  6 40  1  0
  7 41  1  0
  8 42  1  0
  9 43  1  0
 13 44  1  0
 14 45  1  0
 18 46  1  0
 22 47  1  0
 22 48  1  0
 23 49  1  0
 23 50  1  0
 24 51  1  0
 26 52  1  0
 27 53  1  0
 28 54  1  0
 29 55  1  0
 30 56  1  0
M  END
>  <Energy>  (38) 
162.38033249107127

>  <compound_id>  (38) 
3873

>  <target_id>  (38) 
1

>  <reference_id>  (38) 
145

>  <inspiration_ids>  (38) 
[135, 145]

>  <energy_score>  (38) 
32.371987686340844

>  <distance_score>  (38) 
0.9102943134485108

>  <path>  (38) 
/opt/xchem-fragalysis-2/maxwin/BulkDock/SCRATCH/505735/C3873-P145/C3873-P145.minimised.mol

>  <scratch_subdir>  (38) 
/opt/xchem-fragalysis-2/maxwin/BulkDock/SCRATCH/505735/C3873-P145

>  <fragmenstein_runtime>  (38) 
4.9638848304748535

>  <fragmenstein_outcome>  (38) 
too contorted

>  <fragmenstein_mode>  (38) 
expansion

>  <fragmenstein_error>  (38) 


$$$$
C3906-P135
     RDKit          3D

 61 64  0  0  0  0  0  0  0  0999 V2000
    5.7902   -5.4815   28.3540 C   0  0  0  0  0  0  0  0  0  0  0  0
    4.4407   -5.0546   27.8575 N   0  0  0  0  0  0  0  0  0  0  0  0
    3.7337   -6.1765   27.3462 C   0  0  0  0  0  0  0  0  0  0  0  0
    2.9793   -6.9406   27.8885 O   0  0  0  0  0  0  0  0  0  0  0  0
    4.3882   -4.3838   29.2269 C   0  0  0  0  0  0  0  0  0  0  0  0
    3.4468   -3.1345   29.1731 C   0  0  0  0  0  0  0  0  0  0  0  0
    2.0794   -3.3754   28.5357 C   0  0  0  0  0  0  0  0  0  0  0  0
    1.3075   -2.0650   28.4010 C   0  0  0  0  0  0  0  0  0  0  0  0
    1.0587   -1.3110   29.7130 C   0  0  0  0  0  0  0  0  0  0  0  0
   -0.1139   -1.9753   30.4771 C   0  0  0  0  0  0  0  0  0  0  0  0
   -0.5431   -1.2029   31.7216 C   0  0  0  0  0  0  0  0  0  0  0  0
   -0.8939    0.2420   31.3833 C   0  0  0  0  0  0  0  0  0  0  0  0
    0.2012    0.9364   30.5805 C   0  0  0  0  0  0  0  0  0  0  0  0
    0.5877    0.1254   29.3482 C   0  0  0  0  0  0  0  0  0  0  0  0
    2.3833   -1.2025   30.5125 C   0  0  0  0  0  0  0  0  0  0  0  0
    3.3294   -2.4170   30.5445 C   0  0  0  0  0  0  0  0  0  0  0  0
    3.1371   -3.3088   31.7902 C   0  0  0  0  0  0  0  0  0  0  0  0
    1.9260   -4.1209   31.8359 N   0  0  0  0  0  0  0  0  0  0  0  0
    2.0678   -5.1965   32.8022 C   0  0  0  0  0  0  0  0  0  0  0  0
    0.8072   -5.9268   33.1571 C   0  0  0  0  0  0  0  0  0  0  0  0
    0.4129   -6.0063   34.4479 C   0  0  0  0  0  0  0  0  0  0  0  0
   -0.7068   -6.8487   34.8172 C   0  0  0  0  0  0  0  0  0  0  0  0
   -1.3751   -7.5621   33.8958 C   0  0  0  0  0  0  0  0  0  0  0  0
   -1.0114   -7.4670   32.5288 C   0  0  0  0  0  0  0  0  0  0  0  0
   -1.4913   -8.0335   31.4416 N   0  0  0  0  0  0  0  0  0  0  0  0
   -0.7382   -7.6087   30.3784 N   0  0  0  0  0  0  0  0  0  0  0  0
    0.1813   -6.7927   30.8445 C   0  0  0  0  0  0  0  0  0  0  0  0
    0.0669   -6.6522   32.2034 N   0  0  0  0  0  0  0  0  0  0  0  0
    5.7793   -6.1185   29.2530 H   0  0  0  0  0  0  0  0  0  0  0  0
    6.1881   -6.1531   27.5770 H   0  0  0  0  0  0  0  0  0  0  0  0
    6.5256   -4.6627   28.3696 H   0  0  0  0  0  0  0  0  0  0  0  0
    4.0478   -6.3259   26.2949 H   0  0  0  0  0  0  0  0  0  0  0  0
    3.9428   -5.1142   29.9147 H   0  0  0  0  0  0  0  0  0  0  0  0
    5.3130   -3.9626   29.6594 H   0  0  0  0  0  0  0  0  0  0  0  0
    3.9584   -2.4244   28.5032 H   0  0  0  0  0  0  0  0  0  0  0  0
    2.2247   -3.7836   27.5332 H   0  0  0  0  0  0  0  0  0  0  0  0
    1.4859   -4.1173   29.0700 H   0  0  0  0  0  0  0  0  0  0  0  0
    0.3435   -2.2650   27.9248 H   0  0  0  0  0  0  0  0  0  0  0  0
    1.8695   -1.4124   27.7203 H   0  0  0  0  0  0  0  0  0  0  0  0
    0.1015   -3.0082   30.7413 H   0  0  0  0  0  0  0  0  0  0  0  0
   -0.9858   -2.0369   29.8093 H   0  0  0  0  0  0  0  0  0  0  0  0
    0.2466   -1.2292   32.4799 H   0  0  0  0  0  0  0  0  0  0  0  0
   -1.4168   -1.6912   32.1694 H   0  0  0  0  0  0  0  0  0  0  0  0
   -1.0879    0.7985   32.3067 H   0  0  0  0  0  0  0  0  0  0  0  0
   -1.8249    0.2539   30.8028 H   0  0  0  0  0  0  0  0  0  0  0  0
    1.0750    1.1076   31.2189 H   0  0  0  0  0  0  0  0  0  0  0  0
   -0.1339    1.9260   30.2588 H   0  0  0  0  0  0  0  0  0  0  0  0
    1.3723    0.6615   28.7991 H   0  0  0  0  0  0  0  0  0  0  0  0
   -0.2760    0.0738   28.6708 H   0  0  0  0  0  0  0  0  0  0  0  0
    2.9715   -0.3957   30.0487 H   0  0  0  0  0  0  0  0  0  0  0  0
    2.2058   -0.8556   31.5359 H   0  0  0  0  0  0  0  0  0  0  0  0
    4.3272   -1.9797   30.7149 H   0  0  0  0  0  0  0  0  0  0  0  0
    4.0224   -3.9527   31.8749 H   0  0  0  0  0  0  0  0  0  0  0  0
    3.1549   -2.6691   32.6822 H   0  0  0  0  0  0  0  0  0  0  0  0
    1.7455   -4.5064   30.9193 H   0  0  0  0  0  0  0  0  0  0  0  0
    2.5133   -4.7923   33.7218 H   0  0  0  0  0  0  0  0  0  0  0  0
    2.7825   -5.9284   32.4235 H   0  0  0  0  0  0  0  0  0  0  0  0
    0.9375   -5.4955   35.2510 H   0  0  0  0  0  0  0  0  0  0  0  0
   -0.9671   -6.9155   35.8690 H   0  0  0  0  0  0  0  0  0  0  0  0
   -2.1811   -8.2305   34.1722 H   0  0  0  0  0  0  0  0  0  0  0  0
    0.9312   -6.3043   30.2446 H   0  0  0  0  0  0  0  0  0  0  0  0
  1  2  1  0
  2  3  1  0
  3  4  2  0
  2  5  1  0
  5  6  1  0
  6  7  1  0
  7  8  1  0
  8  9  1  0
  9 10  1  0
 10 11  1  0
 11 12  1  0
 12 13  1  0
 13 14  1  0
  9 15  1  0
 15 16  1  0
 16 17  1  0
 17 18  1  0
 18 19  1  0
 19 20  1  0
 20 21  2  0
 21 22  1  0
 22 23  2  0
 23 24  1  0
 24 25  2  0
 25 26  1  0
 26 27  2  0
 27 28  1  0
 16  6  1  0
 28 20  1  0
 14  9  1  0
 28 24  1  0
  1 29  1  0
  1 30  1  0
  1 31  1  0
  3 32  1  0
  5 33  1  0
  5 34  1  0
  6 35  1  0
  7 36  1  0
  7 37  1  0
  8 38  1  0
  8 39  1  0
 10 40  1  0
 10 41  1  0
 11 42  1  0
 11 43  1  0
 12 44  1  0
 12 45  1  0
 13 46  1  0
 13 47  1  0
 14 48  1  0
 14 49  1  0
 15 50  1  0
 15 51  1  0
 16 52  1  0
 17 53  1  0
 17 54  1  0
 18 55  1  0
 19 56  1  0
 19 57  1  0
 21 58  1  0
 22 59  1  0
 23 60  1  0
 27 61  1  0
M  END
>  <Energy>  (39) 
113.08460687399987

>  <compound_id>  (39) 
3906

>  <target_id>  (39) 
1

>  <reference_id>  (39) 
135

>  <inspiration_ids>  (39) 
[135, 147]

>  <energy_score>  (39) 
20.91154459481413

>  <distance_score>  (39) 
1.8416928295316062

>  <path>  (39) 
/opt/xchem-fragalysis-2/maxwin/BulkDock/SCRATCH/505735/C3906-P135/C3906-P135.minimised.mol

>  <scratch_subdir>  (39) 
/opt/xchem-fragalysis-2/maxwin/BulkDock/SCRATCH/505735/C3906-P135

>  <fragmenstein_runtime>  (39) 
13.31030011177063

>  <fragmenstein_outcome>  (39) 
too moved

>  <fragmenstein_mode>  (39) 
expansion

>  <fragmenstein_error>  (39) 


$$$$
C3906-P147
     RDKit          3D

 61 64  0  0  0  0  0  0  0  0999 V2000
    6.4676   -0.7121   29.1044 C   0  0  0  0  0  0  0  0  0  0  0  0
    5.6259   -1.1166   27.9240 N   0  0  0  0  0  0  0  0  0  0  0  0
    6.3852   -2.0397   27.0031 C   0  0  0  0  0  0  0  0  0  0  0  0
    6.4620   -3.2103   26.9957 O   0  0  0  0  0  0  0  0  0  0  0  0
    4.6551   -1.4228   29.0491 C   0  0  0  0  0  0  0  0  0  0  0  0
    3.2303   -1.6917   28.4312 C   0  0  0  0  0  0  0  0  0  0  0  0
    2.6630   -0.3580   27.8709 C   0  0  0  0  0  0  0  0  0  0  0  0
    1.1366   -0.2783   27.9708 C   0  0  0  0  0  0  0  0  0  0  0  0
    0.6237   -0.3520   29.4173 C   0  0  0  0  0  0  0  0  0  0  0  0
   -0.8085   -0.9481   29.4546 C   0  0  0  0  0  0  0  0  0  0  0  0
   -1.6413   -0.5000   30.6589 C   0  0  0  0  0  0  0  0  0  0  0  0
   -0.8475    0.0336   31.8429 C   0  0  0  0  0  0  0  0  0  0  0  0
    0.2070    1.0709   31.4643 C   0  0  0  0  0  0  0  0  0  0  0  0
    0.5750    1.0670   29.9889 C   0  0  0  0  0  0  0  0  0  0  0  0
    1.5699   -1.2356   30.2639 C   0  0  0  0  0  0  0  0  0  0  0  0
    2.2045   -2.3442   29.4225 C   0  0  0  0  0  0  0  0  0  0  0  0
    2.8258   -3.4431   30.2914 C   0  0  0  0  0  0  0  0  0  0  0  0
    2.0142   -3.9863   31.3672 N   0  0  0  0  0  0  0  0  0  0  0  0
    0.9539   -4.8697   30.9645 C   0  0  0  0  0  0  0  0  0  0  0  0
    0.3744   -5.6094   32.1457 C   0  0  0  0  0  0  0  0  0  0  0  0
    0.5671   -5.3125   33.4531 C   0  0  0  0  0  0  0  0  0  0  0  0
   -0.0455   -6.1325   34.4897 C   0  0  0  0  0  0  0  0  0  0  0  0
   -0.8072   -7.1975   34.1820 C   0  0  0  0  0  0  0  0  0  0  0  0
   -1.0131   -7.5261   32.8188 C   0  0  0  0  0  0  0  0  0  0  0  0
   -1.6858   -8.4801   32.2182 N   0  0  0  0  0  0  0  0  0  0  0  0
   -1.4991   -8.3523   30.8680 N   0  0  0  0  0  0  0  0  0  0  0  0
   -0.7483   -7.3005   30.6720 C   0  0  0  0  0  0  0  0  0  0  0  0
   -0.4090   -6.7300   31.8640 N   0  0  0  0  0  0  0  0  0  0  0  0
    6.1495    0.2245   29.5876 H   0  0  0  0  0  0  0  0  0  0  0  0
    7.4348   -0.4301   28.6587 H   0  0  0  0  0  0  0  0  0  0  0  0
    6.7560   -1.5219   29.7938 H   0  0  0  0  0  0  0  0  0  0  0  0
    6.9576   -1.3757   26.3320 H   0  0  0  0  0  0  0  0  0  0  0  0
    4.9785   -2.3750   29.4890 H   0  0  0  0  0  0  0  0  0  0  0  0
    4.4788   -0.6426   29.8075 H   0  0  0  0  0  0  0  0  0  0  0  0
    3.3556   -2.3963   27.5979 H   0  0  0  0  0  0  0  0  0  0  0  0
    3.0909    0.4981   28.4071 H   0  0  0  0  0  0  0  0  0  0  0  0
    2.9796   -0.2381   26.8289 H   0  0  0  0  0  0  0  0  0  0  0  0
    0.6987   -1.1166   27.4378 H   0  0  0  0  0  0  0  0  0  0  0  0
    0.7786    0.6306   27.4730 H   0  0  0  0  0  0  0  0  0  0  0  0
   -0.7640   -2.0442   29.4328 H   0  0  0  0  0  0  0  0  0  0  0  0
   -1.3595   -0.6628   28.5479 H   0  0  0  0  0  0  0  0  0  0  0  0
   -2.2874   -1.3226   30.9865 H   0  0  0  0  0  0  0  0  0  0  0  0
   -2.3175    0.2946   30.3224 H   0  0  0  0  0  0  0  0  0  0  0  0
   -0.3777   -0.8002   32.3763 H   0  0  0  0  0  0  0  0  0  0  0  0
   -1.5385    0.4740   32.5724 H   0  0  0  0  0  0  0  0  0  0  0  0
    1.1013    0.9012   32.0772 H   0  0  0  0  0  0  0  0  0  0  0  0
   -0.1351    2.0737   31.7410 H   0  0  0  0  0  0  0  0  0  0  0  0
    1.5368    1.5801   29.8672 H   0  0  0  0  0  0  0  0  0  0  0  0
   -0.1593    1.6663   29.4336 H   0  0  0  0  0  0  0  0  0  0  0  0
    2.3634   -0.6341   30.7248 H   0  0  0  0  0  0  0  0  0  0  0  0
    1.0061   -1.6652   31.0891 H   0  0  0  0  0  0  0  0  0  0  0  0
    1.4190   -2.8274   28.8256 H   0  0  0  0  0  0  0  0  0  0  0  0
    3.2140   -4.2501   29.6577 H   0  0  0  0  0  0  0  0  0  0  0  0
    3.6892   -3.0367   30.8250 H   0  0  0  0  0  0  0  0  0  0  0  0
    1.6612   -3.2447   31.9665 H   0  0  0  0  0  0  0  0  0  0  0  0
    1.3673   -5.5987   30.2575 H   0  0  0  0  0  0  0  0  0  0  0  0
    0.1569   -4.3168   30.4537 H   0  0  0  0  0  0  0  0  0  0  0  0
    1.1756   -4.4776   33.7861 H   0  0  0  0  0  0  0  0  0  0  0  0
    0.1352   -5.8601   35.5261 H   0  0  0  0  0  0  0  0  0  0  0  0
   -1.2532   -7.8258   34.9448 H   0  0  0  0  0  0  0  0  0  0  0  0
   -0.4451   -6.9146   29.7153 H   0  0  0  0  0  0  0  0  0  0  0  0
  1  2  1  0
  2  3  1  0
  3  4  2  0
  2  5  1  0
  5  6  1  0
  6  7  1  0
  7  8  1  0
  8  9  1  0
  9 10  1  0
 10 11  1  0
 11 12  1  0
 12 13  1  0
 13 14  1  0
  9 15  1  0
 15 16  1  0
 16 17  1  0
 17 18  1  0
 18 19  1  0
 19 20  1  0
 20 21  2  0
 21 22  1  0
 22 23  2  0
 23 24  1  0
 24 25  2  0
 25 26  1  0
 26 27  2  0
 27 28  1  0
 16  6  1  0
 28 20  1  0
 14  9  1  0
 28 24  1  0
  1 29  1  0
  1 30  1  0
  1 31  1  0
  3 32  1  0
  5 33  1  0
  5 34  1  0
  6 35  1  0
  7 36  1  0
  7 37  1  0
  8 38  1  0
  8 39  1  0
 10 40  1  0
 10 41  1  0
 11 42  1  0
 11 43  1  0
 12 44  1  0
 12 45  1  0
 13 46  1  0
 13 47  1  0
 14 48  1  0
 14 49  1  0
 15 50  1  0
 15 51  1  0
 16 52  1  0
 17 53  1  0
 17 54  1  0
 18 55  1  0
 19 56  1  0
 19 57  1  0
 21 58  1  0
 22 59  1  0
 23 60  1  0
 27 61  1  0
M  END
>  <Energy>  (40) 
131.83435664391078

>  <compound_id>  (40) 
3906

>  <target_id>  (40) 
1

>  <reference_id>  (40) 
147

>  <inspiration_ids>  (40) 
[135, 147]

>  <energy_score>  (40) 
42.71997888439694

>  <distance_score>  (40) 
1.6409104228133076

>  <path>  (40) 
/opt/xchem-fragalysis-2/maxwin/BulkDock/SCRATCH/505735/C3906-P147/C3906-P147.minimised.mol

>  <scratch_subdir>  (40) 
/opt/xchem-fragalysis-2/maxwin/BulkDock/SCRATCH/505735/C3906-P147

>  <fragmenstein_runtime>  (40) 
11.357840299606323

>  <fragmenstein_outcome>  (40) 
too moved

>  <fragmenstein_mode>  (40) 
expansion

>  <fragmenstein_error>  (40) 


$$$$
C3908-P135
     RDKit          3D

 48 52  0  0  0  0  0  0  0  0999 V2000
   -1.3390   -2.0641   33.9353 C   0  0  0  0  0  0  0  0  0  0  0  0
   -0.3041   -2.1706   32.8482 N   0  0  0  0  0  0  0  0  0  0  0  0
   -0.3690   -0.6730   32.9373 C   0  0  0  0  0  0  0  0  0  0  0  0
    0.0657   -0.2227   31.5369 C   0  0  0  0  0  0  0  0  0  0  0  0
   -0.8780   -0.1948   30.4929 C   0  0  0  0  0  0  0  0  0  0  0  0
   -0.4848    0.0910   29.1854 C   0  0  0  0  0  0  0  0  0  0  0  0
    0.8548    0.3484   28.9058 C   0  0  0  0  0  0  0  0  0  0  0  0
    1.8003    0.3186   29.9313 C   0  0  0  0  0  0  0  0  0  0  0  0
    1.4111    0.0291   31.2414 C   0  0  0  0  0  0  0  0  0  0  0  0
    0.7217   -3.0825   33.2351 C   0  0  0  0  0  0  0  0  0  0  0  0
    1.7561   -2.8954   33.8125 O   0  0  0  0  0  0  0  0  0  0  0  0
    0.3574   -4.4254   32.6849 C   0  0  0  0  0  0  0  0  0  0  0  0
    0.4363   -4.5093   31.2230 C   0  0  0  0  0  0  0  0  0  0  0  0
    0.0529   -5.6011   30.5518 C   0  0  0  0  0  0  0  0  0  0  0  0
   -0.4901   -6.6917   31.2623 C   0  0  0  0  0  0  0  0  0  0  0  0
   -1.0530   -7.8059   30.8538 N   0  0  0  0  0  0  0  0  0  0  0  0
   -1.4676   -8.4854   31.9661 N   0  0  0  0  0  0  0  0  0  0  0  0
   -1.1370   -7.7769   33.0238 C   0  0  0  0  0  0  0  0  0  0  0  0
   -0.5150   -6.6145   32.6508 N   0  0  0  0  0  0  0  0  0  0  0  0
   -0.0426   -5.5081   33.3904 C   0  0  0  0  0  0  0  0  0  0  0  0
   -0.0501   -5.5608   35.1311 S   0  0  0  0  0  0  0  0  0  0  0  0
    1.3644   -6.5602   35.3468 C   0  0  0  0  0  0  0  0  0  0  0  0
    1.8872   -7.3456   34.4232 N   0  0  0  0  0  0  0  0  0  0  0  0
    2.9595   -7.9817   35.0034 N   0  0  0  0  0  0  0  0  0  0  0  0
    3.0298   -7.5441   36.2492 C   0  0  0  0  0  0  0  0  0  0  0  0
    4.0133   -7.9764   37.1832 C   0  0  0  0  0  0  0  0  0  0  0  0
    4.1407   -7.7070   38.5310 C   0  0  0  0  0  0  0  0  0  0  0  0
    5.2839   -8.4007   38.9997 C   0  0  0  0  0  0  0  0  0  0  0  0
    5.8266   -9.0705   37.9264 C   0  0  0  0  0  0  0  0  0  0  0  0
    5.0505   -8.8056   36.8285 N   0  0  0  0  0  0  0  0  0  0  0  0
    2.0327   -6.6478   36.5362 O   0  0  0  0  0  0  0  0  0  0  0  0
   -2.3180   -1.7188   33.5685 H   0  0  0  0  0  0  0  0  0  0  0  0
   -1.5513   -3.0872   34.2635 H   0  0  0  0  0  0  0  0  0  0  0  0
   -0.9917   -1.5715   34.8585 H   0  0  0  0  0  0  0  0  0  0  0  0
    0.3667   -0.3049   33.6678 H   0  0  0  0  0  0  0  0  0  0  0  0
   -1.3322   -0.1498   33.0735 H   0  0  0  0  0  0  0  0  0  0  0  0
   -1.9222   -0.4279   30.6858 H   0  0  0  0  0  0  0  0  0  0  0  0
   -1.2180    0.0933   28.3812 H   0  0  0  0  0  0  0  0  0  0  0  0
    1.1636    0.5591   27.8850 H   0  0  0  0  0  0  0  0  0  0  0  0
    2.8469    0.5069   29.7059 H   0  0  0  0  0  0  0  0  0  0  0  0
    2.1664   -0.0281   32.0225 H   0  0  0  0  0  0  0  0  0  0  0  0
    0.8236   -3.6448   30.6846 H   0  0  0  0  0  0  0  0  0  0  0  0
    0.1114   -5.6325   29.4753 H   0  0  0  0  0  0  0  0  0  0  0  0
   -1.3352   -8.0504   34.0495 H   0  0  0  0  0  0  0  0  0  0  0  0
    3.4756   -7.0883   39.1211 H   0  0  0  0  0  0  0  0  0  0  0  0
    5.6652   -8.4137   40.0132 H   0  0  0  0  0  0  0  0  0  0  0  0
    6.6935   -9.7140   37.8515 H   0  0  0  0  0  0  0  0  0  0  0  0
    5.2086   -9.1682   35.8966 H   0  0  0  0  0  0  0  0  0  0  0  0
  1  2  1  0
  2  3  1  0
  3  4  1  0
  4  5  2  0
  5  6  1  0
  6  7  2  0
  7  8  1  0
  8  9  2  0
  2 10  1  0
 10 11  2  0
 10 12  1  0
 12 13  1  0
 13 14  2  0
 14 15  1  0
 15 16  2  0
 16 17  1  0
 17 18  2  0
 18 19  1  0
 19 20  1  0
 20 21  1  0
 21 22  1  0
 22 23  2  0
 23 24  1  0
 24 25  2  0
 25 26  1  0
 26 27  2  0
 27 28  1  0
 28 29  2  0
 29 30  1  0
 25 31  1  0
  9  4  1  0
 20 12  2  0
 31 22  1  0
 19 15  1  0
 30 26  1  0
  1 32  1  0
  1 33  1  0
  1 34  1  0
  3 35  1  0
  3 36  1  0
  5 37  1  0
  6 38  1  0
  7 39  1  0
  8 40  1  0
  9 41  1  0
 13 42  1  0
 14 43  1  0
 18 44  1  0
 27 45  1  0
 28 46  1  0
 29 47  1  0
 30 48  1  0
M  END
>  <Energy>  (41) 
106.33756492919672

>  <compound_id>  (41) 
3908

>  <target_id>  (41) 
1

>  <reference_id>  (41) 
135

>  <inspiration_ids>  (41) 
[135, 149]

>  <energy_score>  (41) 
18.820331601402017

>  <distance_score>  (41) 
1.2680171487429583

>  <path>  (41) 
/opt/xchem-fragalysis-2/maxwin/BulkDock/SCRATCH/505735/C3908-P135/C3908-P135.minimised.mol

>  <scratch_subdir>  (41) 
/opt/xchem-fragalysis-2/maxwin/BulkDock/SCRATCH/505735/C3908-P135

>  <fragmenstein_runtime>  (41) 
4.478178262710571

>  <fragmenstein_outcome>  (41) 
too moved

>  <fragmenstein_mode>  (41) 
expansion

>  <fragmenstein_error>  (41) 


$$$$
C3908-P149
     RDKit          3D

 48 52  0  0  0  0  0  0  0  0999 V2000
   -1.2637   -2.1945   33.8573 C   0  0  0  0  0  0  0  0  0  0  0  0
   -0.2526   -2.4035   32.7648 N   0  0  0  0  0  0  0  0  0  0  0  0
   -0.3161   -0.9021   32.7696 C   0  0  0  0  0  0  0  0  0  0  0  0
   -0.0260   -0.5693   31.2976 C   0  0  0  0  0  0  0  0  0  0  0  0
   -1.0932   -0.4017   30.3985 C   0  0  0  0  0  0  0  0  0  0  0  0
   -0.8544   -0.2359   29.0351 C   0  0  0  0  0  0  0  0  0  0  0  0
    0.4520   -0.2410   28.5568 C   0  0  0  0  0  0  0  0  0  0  0  0
    1.5200   -0.4177   29.4338 C   0  0  0  0  0  0  0  0  0  0  0  0
    1.2842   -0.5857   30.7991 C   0  0  0  0  0  0  0  0  0  0  0  0
    0.8456   -3.3437   33.2083 C   0  0  0  0  0  0  0  0  0  0  0  0
    1.8705   -3.1201   33.7327 O   0  0  0  0  0  0  0  0  0  0  0  0
    0.4079   -4.6888   32.7387 C   0  0  0  0  0  0  0  0  0  0  0  0
    0.4896   -4.8540   31.2846 C   0  0  0  0  0  0  0  0  0  0  0  0
    0.0249   -5.9462   30.6703 C   0  0  0  0  0  0  0  0  0  0  0  0
   -0.5976   -6.9511   31.4353 C   0  0  0  0  0  0  0  0  0  0  0  0
   -1.2310   -8.0406   31.0774 N   0  0  0  0  0  0  0  0  0  0  0  0
   -1.7019   -8.6291   32.2151 N   0  0  0  0  0  0  0  0  0  0  0  0
   -1.3215   -7.9022   33.2436 C   0  0  0  0  0  0  0  0  0  0  0  0
   -0.6279   -6.8014   32.8160 N   0  0  0  0  0  0  0  0  0  0  0  0
   -0.0829   -5.6939   33.4962 C   0  0  0  0  0  0  0  0  0  0  0  0
   -0.0518   -5.6827   35.2342 S   0  0  0  0  0  0  0  0  0  0  0  0
    1.3513   -6.7118   35.4032 C   0  0  0  0  0  0  0  0  0  0  0  0
    1.8869   -7.4188   34.4236 N   0  0  0  0  0  0  0  0  0  0  0  0
    2.9624   -8.0840   34.9566 N   0  0  0  0  0  0  0  0  0  0  0  0
    3.0179   -7.7441   36.2331 C   0  0  0  0  0  0  0  0  0  0  0  0
    3.9976   -8.2381   37.1376 C   0  0  0  0  0  0  0  0  0  0  0  0
    4.1165   -8.0646   38.5012 C   0  0  0  0  0  0  0  0  0  0  0  0
    5.2586   -8.7880   38.9242 C   0  0  0  0  0  0  0  0  0  0  0  0
    5.8075   -9.3794   37.8084 C   0  0  0  0  0  0  0  0  0  0  0  0
    5.0380   -9.0361   36.7277 N   0  0  0  0  0  0  0  0  0  0  0  0
    2.0153   -6.8777   36.5841 O   0  0  0  0  0  0  0  0  0  0  0  0
   -2.2508   -1.8751   33.4863 H   0  0  0  0  0  0  0  0  0  0  0  0
   -1.4732   -3.1921   34.2593 H   0  0  0  0  0  0  0  0  0  0  0  0
   -0.8914   -1.6522   34.7432 H   0  0  0  0  0  0  0  0  0  0  0  0
    0.5044   -0.5023   33.3840 H   0  0  0  0  0  0  0  0  0  0  0  0
   -1.2408   -0.3303   32.9744 H   0  0  0  0  0  0  0  0  0  0  0  0
   -2.1191   -0.4242   30.7526 H   0  0  0  0  0  0  0  0  0  0  0  0
   -1.6813   -0.1208   28.3383 H   0  0  0  0  0  0  0  0  0  0  0  0
    0.6357   -0.1162   27.4954 H   0  0  0  0  0  0  0  0  0  0  0  0
    2.5371   -0.4313   29.0513 H   0  0  0  0  0  0  0  0  0  0  0  0
    2.1242   -0.7537   31.4701 H   0  0  0  0  0  0  0  0  0  0  0  0
    0.9273   -4.0436   30.7026 H   0  0  0  0  0  0  0  0  0  0  0  0
    0.0554   -6.0347   29.5963 H   0  0  0  0  0  0  0  0  0  0  0  0
   -1.5296   -8.1266   34.2808 H   0  0  0  0  0  0  0  0  0  0  0  0
    3.4475   -7.4887   39.1288 H   0  0  0  0  0  0  0  0  0  0  0  0
    5.6379   -8.8698   39.9353 H   0  0  0  0  0  0  0  0  0  0  0  0
    6.6775  -10.0117   37.6908 H   0  0  0  0  0  0  0  0  0  0  0  0
    5.2006   -9.3268   35.7711 H   0  0  0  0  0  0  0  0  0  0  0  0
  1  2  1  0
  2  3  1  0
  3  4  1  0
  4  5  2  0
  5  6  1  0
  6  7  2  0
  7  8  1  0
  8  9  2  0
  2 10  1  0
 10 11  2  0
 10 12  1  0
 12 13  1  0
 13 14  2  0
 14 15  1  0
 15 16  2  0
 16 17  1  0
 17 18  2  0
 18 19  1  0
 19 20  1  0
 20 21  1  0
 21 22  1  0
 22 23  2  0
 23 24  1  0
 24 25  2  0
 25 26  1  0
 26 27  2  0
 27 28  1  0
 28 29  2  0
 29 30  1  0
 25 31  1  0
  9  4  1  0
 20 12  2  0
 31 22  1  0
 19 15  1  0
 30 26  1  0
  1 32  1  0
  1 33  1  0
  1 34  1  0
  3 35  1  0
  3 36  1  0
  5 37  1  0
  6 38  1  0
  7 39  1  0
  8 40  1  0
  9 41  1  0
 13 42  1  0
 14 43  1  0
 18 44  1  0
 27 45  1  0
 28 46  1  0
 29 47  1  0
 30 48  1  0
M  END
>  <Energy>  (42) 
121.11317798181621

>  <compound_id>  (42) 
3908

>  <target_id>  (42) 
1

>  <reference_id>  (42) 
149

>  <inspiration_ids>  (42) 
[135, 149]

>  <energy_score>  (42) 
30.25040764910412

>  <distance_score>  (42) 
1.113369928059258

>  <path>  (42) 
/opt/xchem-fragalysis-2/maxwin/BulkDock/SCRATCH/505735/C3908-P149/C3908-P149.minimised.mol

>  <scratch_subdir>  (42) 
/opt/xchem-fragalysis-2/maxwin/BulkDock/SCRATCH/505735/C3908-P149

>  <fragmenstein_runtime>  (42) 
3.424085855484009

>  <fragmenstein_outcome>  (42) 
too moved

>  <fragmenstein_mode>  (42) 
expansion

>  <fragmenstein_error>  (42) 


$$$$
C3909-P135
     RDKit          3D

 57 61  0  0  0  0  0  0  0  0999 V2000
    1.6890   -2.7900   32.9652 C   0  0  0  0  0  0  0  0  0  0  0  0
    0.2517   -2.7904   32.7710 N   0  0  0  0  0  0  0  0  0  0  0  0
   -0.3685   -1.5084   32.4808 C   0  0  0  0  0  0  0  0  0  0  0  0
   -0.1898   -1.0657   31.0450 C   0  0  0  0  0  0  0  0  0  0  0  0
   -1.1791   -1.3088   30.0816 C   0  0  0  0  0  0  0  0  0  0  0  0
   -0.9903   -0.9314   28.7529 C   0  0  0  0  0  0  0  0  0  0  0  0
    0.1792   -0.2774   28.3797 C   0  0  0  0  0  0  0  0  0  0  0  0
    1.1650   -0.0099   29.3241 C   0  0  0  0  0  0  0  0  0  0  0  0
    0.9822   -0.4031   30.6492 C   0  0  0  0  0  0  0  0  0  0  0  0
   -0.5047   -4.0111   32.7884 C   0  0  0  0  0  0  0  0  0  0  0  0
   -1.7879   -3.8030   32.2263 O   0  0  0  0  0  0  0  0  0  0  0  0
   -0.7693   -4.4502   34.1129 N   0  0  0  0  0  0  0  0  0  0  0  0
   -0.2608   -3.7880   35.2857 C   0  0  0  0  0  0  0  0  0  0  0  0
   -0.0862   -4.8626   36.2520 N   0  0  0  0  0  0  0  0  0  0  0  0
    0.6929   -5.9656   36.0921 C   0  0  0  0  0  0  0  0  0  0  0  0
    0.6963   -6.6589   37.1995 N   0  0  0  0  0  0  0  0  0  0  0  0
   -0.1082   -5.9200   38.0449 C   0  0  0  0  0  0  0  0  0  0  0  0
   -0.3416   -6.3222   39.4244 C   0  0  0  0  0  0  0  0  0  0  0  0
    0.1596   -7.5459   39.8931 C   0  0  0  0  0  0  0  0  0  0  0  0
   -0.1105   -7.9713   41.1945 C   0  0  0  0  0  0  0  0  0  0  0  0
   -0.8765   -7.1742   42.0428 C   0  0  0  0  0  0  0  0  0  0  0  0
   -1.3720   -5.9514   41.5930 C   0  0  0  0  0  0  0  0  0  0  0  0
   -1.1028   -5.5251   40.2907 C   0  0  0  0  0  0  0  0  0  0  0  0
   -0.6293   -4.8174   37.4760 N   0  0  0  0  0  0  0  0  0  0  0  0
    0.0203   -5.1595   31.9340 C   0  0  0  0  0  0  0  0  0  0  0  0
    0.8514   -4.9530   30.8836 C   0  0  0  0  0  0  0  0  0  0  0  0
    1.1860   -6.0274   29.9801 C   0  0  0  0  0  0  0  0  0  0  0  0
    0.5898   -7.2254   30.0863 C   0  0  0  0  0  0  0  0  0  0  0  0
   -0.3439   -7.4533   31.1074 C   0  0  0  0  0  0  0  0  0  0  0  0
   -1.1238   -8.4784   31.3409 N   0  0  0  0  0  0  0  0  0  0  0  0
   -1.7102   -8.2627   32.5502 N   0  0  0  0  0  0  0  0  0  0  0  0
   -1.2996   -7.0989   32.9977 C   0  0  0  0  0  0  0  0  0  0  0  0
   -0.5194   -6.4669   32.0653 N   0  0  0  0  0  0  0  0  0  0  0  0
    2.2315   -2.5940   32.0358 H   0  0  0  0  0  0  0  0  0  0  0  0
    2.0603   -3.7424   33.3606 H   0  0  0  0  0  0  0  0  0  0  0  0
    1.9842   -2.0188   33.6859 H   0  0  0  0  0  0  0  0  0  0  0  0
   -1.4348   -1.4973   32.7413 H   0  0  0  0  0  0  0  0  0  0  0  0
    0.0553   -0.7360   33.1376 H   0  0  0  0  0  0  0  0  0  0  0  0
   -2.1204   -1.7735   30.3541 H   0  0  0  0  0  0  0  0  0  0  0  0
   -1.7573   -1.1353   28.0065 H   0  0  0  0  0  0  0  0  0  0  0  0
    0.3147    0.0333   27.3497 H   0  0  0  0  0  0  0  0  0  0  0  0
    2.0727    0.5081   29.0260 H   0  0  0  0  0  0  0  0  0  0  0  0
    1.7613   -0.1807   31.3746 H   0  0  0  0  0  0  0  0  0  0  0  0
   -1.5844   -3.5283   31.3162 H   0  0  0  0  0  0  0  0  0  0  0  0
   -1.7966   -4.4439   34.1939 H   0  0  0  0  0  0  0  0  0  0  0  0
   -0.9680   -3.0560   35.6888 H   0  0  0  0  0  0  0  0  0  0  0  0
    0.7278   -3.3347   35.2102 H   0  0  0  0  0  0  0  0  0  0  0  0
    1.2226   -6.1981   35.1808 H   0  0  0  0  0  0  0  0  0  0  0  0
    0.7377   -8.1961   39.2375 H   0  0  0  0  0  0  0  0  0  0  0  0
    0.2654   -8.9342   41.5336 H   0  0  0  0  0  0  0  0  0  0  0  0
   -1.0944   -7.5118   43.0526 H   0  0  0  0  0  0  0  0  0  0  0  0
   -1.9815   -5.3348   42.2478 H   0  0  0  0  0  0  0  0  0  0  0  0
   -1.5221   -4.5826   39.9450 H   0  0  0  0  0  0  0  0  0  0  0  0
    1.2227   -3.9706   30.6075 H   0  0  0  0  0  0  0  0  0  0  0  0
    1.9234   -5.8307   29.2074 H   0  0  0  0  0  0  0  0  0  0  0  0
    0.8410   -8.0728   29.4578 H   0  0  0  0  0  0  0  0  0  0  0  0
   -1.5631   -6.6985   33.9616 H   0  0  0  0  0  0  0  0  0  0  0  0
  1  2  1  0
  2  3  1  0
  3  4  1  0
  4  5  2  0
  5  6  1  0
  6  7  2  0
  7  8  1  0
  8  9  2  0
  2 10  1  0
 10 11  1  0
 10 12  1  0
 12 13  1  0
 13 14  1  0
 14 15  1  0
 15 16  2  0
 16 17  1  0
 17 18  1  0
 18 19  2  0
 19 20  1  0
 20 21  2  0
 21 22  1  0
 22 23  2  0
 17 24  2  0
 10 25  1  0
 25 26  2  0
 26 27  1  0
 27 28  2  0
 28 29  1  0
 29 30  2  0
 30 31  1  0
 31 32  2  0
 32 33  1  0
  9  4  1  0
 24 14  1  0
 33 25  1  0
 23 18  1  0
 33 29  1  0
  1 34  1  0
  1 35  1  0
  1 36  1  0
  3 37  1  0
  3 38  1  0
  5 39  1  0
  6 40  1  0
  7 41  1  0
  8 42  1  0
  9 43  1  0
 11 44  1  0
 12 45  1  0
 13 46  1  0
 13 47  1  0
 15 48  1  0
 19 49  1  0
 20 50  1  0
 21 51  1  0
 22 52  1  0
 23 53  1  0
 26 54  1  0
 27 55  1  0
 28 56  1  0
 32 57  1  0
M  END
>  <Energy>  (43) 
-29.96275626935196

>  <compound_id>  (43) 
3909

>  <target_id>  (43) 
1

>  <reference_id>  (43) 
135

>  <inspiration_ids>  (43) 
[135, 150]

>  <energy_score>  (43) 
-40.702093824166546

>  <distance_score>  (43) 
0.7453170519588762

>  <path>  (43) 
/opt/xchem-fragalysis-2/maxwin/BulkDock/SCRATCH/505735/C3909-P135/C3909-P135.minimised.mol

>  <scratch_subdir>  (43) 
/opt/xchem-fragalysis-2/maxwin/BulkDock/SCRATCH/505735/C3909-P135

>  <fragmenstein_runtime>  (43) 
4.008279085159302

>  <fragmenstein_outcome>  (43) 
acceptable

>  <fragmenstein_mode>  (43) 
expansion

>  <fragmenstein_error>  (43) 


$$$$
C3909-P150
     RDKit          3D

 57 61  0  0  0  0  0  0  0  0999 V2000
    0.9931   -1.3086   33.6669 C   0  0  0  0  0  0  0  0  0  0  0  0
    0.0508   -2.0496   32.8397 N   0  0  0  0  0  0  0  0  0  0  0  0
   -0.9026   -1.1250   32.2285 C   0  0  0  0  0  0  0  0  0  0  0  0
   -0.5082   -0.7914   30.8162 C   0  0  0  0  0  0  0  0  0  0  0  0
   -1.0730   -1.4925   29.7447 C   0  0  0  0  0  0  0  0  0  0  0  0
   -0.7337   -1.1585   28.4393 C   0  0  0  0  0  0  0  0  0  0  0  0
    0.1925   -0.1464   28.1995 C   0  0  0  0  0  0  0  0  0  0  0  0
    0.7852    0.5356   29.2549 C   0  0  0  0  0  0  0  0  0  0  0  0
    0.4314    0.2181   30.5604 C   0  0  0  0  0  0  0  0  0  0  0  0
   -0.4770   -3.3193   33.2980 C   0  0  0  0  0  0  0  0  0  0  0  0
   -1.4276   -3.7837   32.3552 O   0  0  0  0  0  0  0  0  0  0  0  0
   -1.2683   -3.1213   34.4901 N   0  0  0  0  0  0  0  0  0  0  0  0
   -0.6622   -2.9322   35.7996 C   0  0  0  0  0  0  0  0  0  0  0  0
   -0.3475   -4.1985   36.4580 N   0  0  0  0  0  0  0  0  0  0  0  0
    0.8960   -4.7322   36.5838 C   0  0  0  0  0  0  0  0  0  0  0  0
    0.8873   -5.6961   37.4636 N   0  0  0  0  0  0  0  0  0  0  0  0
   -0.3660   -5.5942   38.0177 C   0  0  0  0  0  0  0  0  0  0  0  0
   -0.6375   -6.1917   39.3171 C   0  0  0  0  0  0  0  0  0  0  0  0
    0.0634   -7.3351   39.7276 C   0  0  0  0  0  0  0  0  0  0  0  0
   -0.1349   -7.8674   41.0034 C   0  0  0  0  0  0  0  0  0  0  0  0
   -1.0276   -7.2562   41.8825 C   0  0  0  0  0  0  0  0  0  0  0  0
   -1.7250   -6.1157   41.4873 C   0  0  0  0  0  0  0  0  0  0  0  0
   -1.5298   -5.5842   40.2106 C   0  0  0  0  0  0  0  0  0  0  0  0
   -1.1847   -4.7432   37.3664 N   0  0  0  0  0  0  0  0  0  0  0  0
    0.5762   -4.4112   33.3713 C   0  0  0  0  0  0  0  0  0  0  0  0
    1.9230   -4.2343   33.3036 C   0  0  0  0  0  0  0  0  0  0  0  0
    2.8109   -5.2695   33.7995 C   0  0  0  0  0  0  0  0  0  0  0  0
    2.3301   -6.4944   34.0607 C   0  0  0  0  0  0  0  0  0  0  0  0
    1.0183   -6.7936   33.6349 C   0  0  0  0  0  0  0  0  0  0  0  0
    0.3965   -7.8987   33.3254 N   0  0  0  0  0  0  0  0  0  0  0  0
   -0.9166   -7.6509   33.1450 N   0  0  0  0  0  0  0  0  0  0  0  0
   -1.0332   -6.3729   33.3417 C   0  0  0  0  0  0  0  0  0  0  0  0
    0.1645   -5.7465   33.4496 N   0  0  0  0  0  0  0  0  0  0  0  0
    1.6447   -1.9135   34.2992 H   0  0  0  0  0  0  0  0  0  0  0  0
    0.4821   -0.6166   34.3481 H   0  0  0  0  0  0  0  0  0  0  0  0
    1.6636   -0.7126   33.0391 H   0  0  0  0  0  0  0  0  0  0  0  0
   -1.9405   -1.4763   32.2229 H   0  0  0  0  0  0  0  0  0  0  0  0
   -0.9839   -0.1865   32.7966 H   0  0  0  0  0  0  0  0  0  0  0  0
   -1.7838   -2.2975   29.9113 H   0  0  0  0  0  0  0  0  0  0  0  0
   -1.1931   -1.6909   27.6098 H   0  0  0  0  0  0  0  0  0  0  0  0
    0.4599    0.1146   27.1840 H   0  0  0  0  0  0  0  0  0  0  0  0
    1.5093    1.3200   29.0547 H   0  0  0  0  0  0  0  0  0  0  0  0
    0.8850    0.7720   31.3768 H   0  0  0  0  0  0  0  0  0  0  0  0
   -2.2371   -3.3403   32.6560 H   0  0  0  0  0  0  0  0  0  0  0  0
   -1.9624   -3.8735   34.5812 H   0  0  0  0  0  0  0  0  0  0  0  0
   -1.3914   -2.4282   36.4454 H   0  0  0  0  0  0  0  0  0  0  0  0
    0.2359   -2.3174   35.8234 H   0  0  0  0  0  0  0  0  0  0  0  0
    1.7660   -4.3505   36.0767 H   0  0  0  0  0  0  0  0  0  0  0  0
    0.7621   -7.8199   39.0479 H   0  0  0  0  0  0  0  0  0  0  0  0
    0.4069   -8.7583   41.3076 H   0  0  0  0  0  0  0  0  0  0  0  0
   -1.1846   -7.6714   42.8747 H   0  0  0  0  0  0  0  0  0  0  0  0
   -2.4292   -5.6432   42.1672 H   0  0  0  0  0  0  0  0  0  0  0  0
   -2.0809   -4.6935   39.9186 H   0  0  0  0  0  0  0  0  0  0  0  0
    2.4051   -3.2970   33.0589 H   0  0  0  0  0  0  0  0  0  0  0  0
    3.8306   -4.9983   34.0584 H   0  0  0  0  0  0  0  0  0  0  0  0
    2.9317   -7.2560   34.5417 H   0  0  0  0  0  0  0  0  0  0  0  0
   -1.9318   -5.8445   33.3872 H   0  0  0  0  0  0  0  0  0  0  0  0
  1  2  1  0
  2  3  1  0
  3  4  1  0
  4  5  2  0
  5  6  1  0
  6  7  2  0
  7  8  1  0
  8  9  2  0
  2 10  1  0
 10 11  1  0
 10 12  1  0
 12 13  1  0
 13 14  1  0
 14 15  1  0
 15 16  2  0
 16 17  1  0
 17 18  1  0
 18 19  2  0
 19 20  1  0
 20 21  2  0
 21 22  1  0
 22 23  2  0
 17 24  2  0
 10 25  1  0
 25 26  2  0
 26 27  1  0
 27 28  2  0
 28 29  1  0
 29 30  2  0
 30 31  1  0
 31 32  2  0
 32 33  1  0
  9  4  1  0
 24 14  1  0
 33 25  1  0
 23 18  1  0
 33 29  1  0
  1 34  1  0
  1 35  1  0
  1 36  1  0
  3 37  1  0
  3 38  1  0
  5 39  1  0
  6 40  1  0
  7 41  1  0
  8 42  1  0
  9 43  1  0
 11 44  1  0
 12 45  1  0
 13 46  1  0
 13 47  1  0
 15 48  1  0
 19 49  1  0
 20 50  1  0
 21 51  1  0
 22 52  1  0
 23 53  1  0
 26 54  1  0
 27 55  1  0
 28 56  1  0
 32 57  1  0
M  END
>  <Energy>  (44) 
-13.814047489722148

>  <compound_id>  (44) 
3909

>  <target_id>  (44) 
1

>  <reference_id>  (44) 
150

>  <inspiration_ids>  (44) 
[135, 150]

>  <energy_score>  (44) 
-24.553385044536157

>  <distance_score>  (44) 
1.418554998698943

>  <path>  (44) 
/opt/xchem-fragalysis-2/maxwin/BulkDock/SCRATCH/505735/C3909-P150/C3909-P150.minimised.mol

>  <scratch_subdir>  (44) 
/opt/xchem-fragalysis-2/maxwin/BulkDock/SCRATCH/505735/C3909-P150

>  <fragmenstein_runtime>  (44) 
3.9302544593811035

>  <fragmenstein_outcome>  (44) 
too moved

>  <fragmenstein_mode>  (44) 
expansion

>  <fragmenstein_error>  (44) 


$$$$
C3876-P135
     RDKit          3D

 59 63  0  0  0  0  0  0  0  0999 V2000
   -0.7078   -2.6343   30.4203 C   0  0  0  0  0  0  0  0  0  0  0  0
   -0.5707   -2.7696   31.9230 N   0  0  0  0  0  0  0  0  0  0  0  0
   -1.0638   -1.3203   31.8787 C   0  0  0  0  0  0  0  0  0  0  0  0
   -0.2957   -0.2176   31.1474 C   0  0  0  0  0  0  0  0  0  0  0  0
   -0.8489    0.3645   29.9908 C   0  0  0  0  0  0  0  0  0  0  0  0
   -0.1133    1.2660   29.2236 C   0  0  0  0  0  0  0  0  0  0  0  0
    1.1731    1.6198   29.6169 C   0  0  0  0  0  0  0  0  0  0  0  0
    1.7198    1.0785   30.7796 C   0  0  0  0  0  0  0  0  0  0  0  0
    0.9900    0.1661   31.5441 C   0  0  0  0  0  0  0  0  0  0  0  0
    0.7175   -3.3099   32.2561 C   0  0  0  0  0  0  0  0  0  0  0  0
    1.7569   -2.7607   32.4968 O   0  0  0  0  0  0  0  0  0  0  0  0
    0.6432   -4.7971   32.1616 C   0  0  0  0  0  0  0  0  0  0  0  0
    1.1541   -5.2648   30.8677 C   0  0  0  0  0  0  0  0  0  0  0  0
    0.7473   -6.4129   30.3229 C   0  0  0  0  0  0  0  0  0  0  0  0
   -0.1735   -7.2114   31.0244 C   0  0  0  0  0  0  0  0  0  0  0  0
   -0.8737   -8.2581   30.6588 N   0  0  0  0  0  0  0  0  0  0  0  0
   -1.5895   -8.6638   31.7469 N   0  0  0  0  0  0  0  0  0  0  0  0
   -1.3035   -7.8596   32.7493 C   0  0  0  0  0  0  0  0  0  0  0  0
   -0.4286   -6.8847   32.3523 N   0  0  0  0  0  0  0  0  0  0  0  0
    0.0246   -5.6915   32.9682 C   0  0  0  0  0  0  0  0  0  0  0  0
   -0.0769   -5.4428   34.3807 N   0  0  0  0  0  0  0  0  0  0  0  0
   -0.5279   -4.2150   35.0424 C   0  0  0  0  0  0  0  0  0  0  0  0
    0.6372   -3.5363   35.7699 C   0  0  0  0  0  0  0  0  0  0  0  0
    1.6971   -4.4949   36.3391 C   0  0  0  0  0  0  0  0  0  0  0  0
    1.0860   -5.8084   36.8322 C   0  0  0  0  0  0  0  0  0  0  0  0
    1.9934   -6.7479   37.6022 C   0  0  0  0  0  0  0  0  0  0  0  0
    3.3841   -6.7858   37.4209 C   0  0  0  0  0  0  0  0  0  0  0  0
    4.1759   -7.6773   38.1518 C   0  0  0  0  0  0  0  0  0  0  0  0
    3.5919   -8.5453   39.0705 C   0  0  0  0  0  0  0  0  0  0  0  0
    2.2144   -8.5252   39.2587 C   0  0  0  0  0  0  0  0  0  0  0  0
    1.4219   -7.6365   38.5305 C   0  0  0  0  0  0  0  0  0  0  0  0
    0.3972   -6.7238   35.4161 S   0  0  0  0  0  0  0  0  0  0  0  0
   -0.8278   -7.3685   35.8444 O   0  0  0  0  0  0  0  0  0  0  0  0
    1.4297   -7.4683   34.7146 O   0  0  0  0  0  0  0  0  0  0  0  0
   -1.6755   -2.2878   30.0253 H   0  0  0  0  0  0  0  0  0  0  0  0
   -0.7234   -3.6700   30.0539 H   0  0  0  0  0  0  0  0  0  0  0  0
    0.1878   -2.2303   29.9288 H   0  0  0  0  0  0  0  0  0  0  0  0
   -2.1502   -1.2841   31.6893 H   0  0  0  0  0  0  0  0  0  0  0  0
   -1.0026   -1.0278   32.9388 H   0  0  0  0  0  0  0  0  0  0  0  0
   -1.8490    0.0984   29.6550 H   0  0  0  0  0  0  0  0  0  0  0  0
   -0.5469    1.6926   28.3219 H   0  0  0  0  0  0  0  0  0  0  0  0
    1.7495    2.3222   29.0202 H   0  0  0  0  0  0  0  0  0  0  0  0
    2.7252    1.3571   31.0859 H   0  0  0  0  0  0  0  0  0  0  0  0
    1.4481   -0.2645   32.4319 H   0  0  0  0  0  0  0  0  0  0  0  0
    1.8813   -4.6363   30.3559 H   0  0  0  0  0  0  0  0  0  0  0  0
    1.1527   -6.7477   29.3828 H   0  0  0  0  0  0  0  0  0  0  0  0
   -1.7381   -7.9230   33.7337 H   0  0  0  0  0  0  0  0  0  0  0  0
   -1.2964   -4.4840   35.7782 H   0  0  0  0  0  0  0  0  0  0  0  0
   -1.0187   -3.5219   34.3578 H   0  0  0  0  0  0  0  0  0  0  0  0
    1.1387   -2.8305   35.0989 H   0  0  0  0  0  0  0  0  0  0  0  0
    0.2238   -2.9280   36.5841 H   0  0  0  0  0  0  0  0  0  0  0  0
    2.4379   -4.6946   35.5538 H   0  0  0  0  0  0  0  0  0  0  0  0
    2.2319   -3.9868   37.1507 H   0  0  0  0  0  0  0  0  0  0  0  0
    0.2307   -5.5588   37.4750 H   0  0  0  0  0  0  0  0  0  0  0  0
    3.8776   -6.1322   36.7060 H   0  0  0  0  0  0  0  0  0  0  0  0
    5.2523   -7.6973   37.9998 H   0  0  0  0  0  0  0  0  0  0  0  0
    4.2055   -9.2444   39.6322 H   0  0  0  0  0  0  0  0  0  0  0  0
    1.7475   -9.2209   39.9543 H   0  0  0  0  0  0  0  0  0  0  0  0
    0.3451   -7.6636   38.6901 H   0  0  0  0  0  0  0  0  0  0  0  0
  1  2  1  0
  2  3  1  0
  3  4  1  0
  4  5  2  0
  5  6  1  0
  6  7  2  0
  7  8  1  0
  8  9  2  0
  2 10  1  0
 10 11  2  0
 10 12  1  0
 12 13  1  0
 13 14  2  0
 14 15  1  0
 15 16  2  0
 16 17  1  0
 17 18  2  0
 18 19  1  0
 19 20  1  0
 20 21  1  0
 21 22  1  0
 22 23  1  0
 23 24  1  0
 24 25  1  0
 25 26  1  0
 26 27  2  0
 27 28  1  0
 28 29  2  0
 29 30  1  0
 30 31  2  0
 25 32  1  0
 32 33  2  0
 32 34  2  0
  9  4  1  0
 20 12  2  0
 32 21  1  0
 19 15  1  0
 31 26  1  0
  1 35  1  0
  1 36  1  0
  1 37  1  0
  3 38  1  0
  3 39  1  0
  5 40  1  0
  6 41  1  0
  7 42  1  0
  8 43  1  0
  9 44  1  0
 13 45  1  0
 14 46  1  0
 18 47  1  0
 22 48  1  0
 22 49  1  0
 23 50  1  0
 23 51  1  0
 24 52  1  0
 24 53  1  0
 25 54  1  0
 27 55  1  0
 28 56  1  0
 29 57  1  0
 30 58  1  0
 31 59  1  0
M  END
>  <Energy>  (45) 
172.87036172140481

>  <compound_id>  (45) 
3876

>  <target_id>  (45) 
1

>  <reference_id>  (45) 
135

>  <inspiration_ids>  (45) 
[135, 152]

>  <energy_score>  (45) 
24.811204830647682

>  <distance_score>  (45) 
1.2632147092350534

>  <path>  (45) 
/opt/xchem-fragalysis-2/maxwin/BulkDock/SCRATCH/505735/C3876-P135/C3876-P135.minimised.mol

>  <scratch_subdir>  (45) 
/opt/xchem-fragalysis-2/maxwin/BulkDock/SCRATCH/505735/C3876-P135

>  <fragmenstein_runtime>  (45) 
7.545403957366943

>  <fragmenstein_outcome>  (45) 
too moved

>  <fragmenstein_mode>  (45) 
expansion

>  <fragmenstein_error>  (45) 


$$$$
C3876-P152
     RDKit          3D

 59 63  0  0  0  0  0  0  0  0999 V2000
   -0.5998   -2.4760   30.6060 C   0  0  0  0  0  0  0  0  0  0  0  0
   -0.4211   -2.6281   32.1024 N   0  0  0  0  0  0  0  0  0  0  0  0
   -0.7671   -1.1382   32.0744 C   0  0  0  0  0  0  0  0  0  0  0  0
    0.0875   -0.1215   31.3132 C   0  0  0  0  0  0  0  0  0  0  0  0
   -0.4343    0.5093   30.1670 C   0  0  0  0  0  0  0  0  0  0  0  0
    0.3572    1.3548   29.3927 C   0  0  0  0  0  0  0  0  0  0  0  0
    1.6788    1.5884   29.7564 C   0  0  0  0  0  0  0  0  0  0  0  0
    2.2036    0.9864   30.8992 C   0  0  0  0  0  0  0  0  0  0  0  0
    1.4125    0.1392   31.6779 C   0  0  0  0  0  0  0  0  0  0  0  0
    0.8178   -3.2957   32.3882 C   0  0  0  0  0  0  0  0  0  0  0  0
    1.9155   -2.8541   32.5896 O   0  0  0  0  0  0  0  0  0  0  0  0
    0.5915   -4.7673   32.2982 C   0  0  0  0  0  0  0  0  0  0  0  0
    0.9730   -5.2561   30.9699 C   0  0  0  0  0  0  0  0  0  0  0  0
    0.4815   -6.3883   30.4699 C   0  0  0  0  0  0  0  0  0  0  0  0
   -0.3987   -7.1558   31.2460 C   0  0  0  0  0  0  0  0  0  0  0  0
   -1.1251   -8.2006   30.9426 N   0  0  0  0  0  0  0  0  0  0  0  0
   -1.7676   -8.5835   32.0806 N   0  0  0  0  0  0  0  0  0  0  0  0
   -1.4112   -7.7692   33.0507 C   0  0  0  0  0  0  0  0  0  0  0  0
   -0.5475   -6.8144   32.5853 N   0  0  0  0  0  0  0  0  0  0  0  0
   -0.0008   -5.6350   33.1533 C   0  0  0  0  0  0  0  0  0  0  0  0
    0.0617   -5.3801   34.5654 N   0  0  0  0  0  0  0  0  0  0  0  0
   -0.3314   -4.1469   35.2511 C   0  0  0  0  0  0  0  0  0  0  0  0
    0.8819   -3.5264   35.9542 C   0  0  0  0  0  0  0  0  0  0  0  0
    1.9231   -4.5337   36.4768 C   0  0  0  0  0  0  0  0  0  0  0  0
    1.2768   -5.8299   36.9685 C   0  0  0  0  0  0  0  0  0  0  0  0
    2.1540   -6.8235   37.7030 C   0  0  0  0  0  0  0  0  0  0  0  0
    3.5422   -6.8974   37.5206 C   0  0  0  0  0  0  0  0  0  0  0  0
    4.3034   -7.8401   38.2190 C   0  0  0  0  0  0  0  0  0  0  0  0
    3.6905   -8.7235   39.1044 C   0  0  0  0  0  0  0  0  0  0  0  0
    2.3139   -8.6681   39.2925 C   0  0  0  0  0  0  0  0  0  0  0  0
    1.5521   -7.7279   38.5978 C   0  0  0  0  0  0  0  0  0  0  0  0
    0.5092   -6.6933   35.5632 S   0  0  0  0  0  0  0  0  0  0  0  0
   -0.7229   -7.2900   36.0328 O   0  0  0  0  0  0  0  0  0  0  0  0
    1.4804   -7.4749   34.8142 O   0  0  0  0  0  0  0  0  0  0  0  0
   -1.5379   -2.0256   30.2448 H   0  0  0  0  0  0  0  0  0  0  0  0
   -0.7475   -3.5026   30.2438 H   0  0  0  0  0  0  0  0  0  0  0  0
    0.3158   -2.1732   30.0798 H   0  0  0  0  0  0  0  0  0  0  0  0
   -1.8497   -0.9893   31.9217 H   0  0  0  0  0  0  0  0  0  0  0  0
   -0.6403   -0.8547   33.1311 H   0  0  0  0  0  0  0  0  0  0  0  0
   -1.4644    0.3420   29.8553 H   0  0  0  0  0  0  0  0  0  0  0  0
   -0.0622    1.8360   28.5122 H   0  0  0  0  0  0  0  0  0  0  0  0
    2.2988    2.2484   29.1552 H   0  0  0  0  0  0  0  0  0  0  0  0
    3.2366    1.1722   31.1828 H   0  0  0  0  0  0  0  0  0  0  0  0
    1.8497   -0.3345   32.5541 H   0  0  0  0  0  0  0  0  0  0  0  0
    1.6866   -4.6655   30.3977 H   0  0  0  0  0  0  0  0  0  0  0  0
    0.8099   -6.7506   29.5162 H   0  0  0  0  0  0  0  0  0  0  0  0
   -1.7941   -7.8187   34.0568 H   0  0  0  0  0  0  0  0  0  0  0  0
   -1.0976   -4.3928   35.9972 H   0  0  0  0  0  0  0  0  0  0  0  0
   -0.7986   -3.4208   34.5839 H   0  0  0  0  0  0  0  0  0  0  0  0
    1.3898   -2.8320   35.2753 H   0  0  0  0  0  0  0  0  0  0  0  0
    0.5180   -2.9139   36.7885 H   0  0  0  0  0  0  0  0  0  0  0  0
    2.6328   -4.7496   35.6674 H   0  0  0  0  0  0  0  0  0  0  0  0
    2.5001   -4.0585   37.2793 H   0  0  0  0  0  0  0  0  0  0  0  0
    0.4511   -5.5531   37.6387 H   0  0  0  0  0  0  0  0  0  0  0  0
    4.0569   -6.2327   36.8313 H   0  0  0  0  0  0  0  0  0  0  0  0
    5.3791   -7.8878   38.0684 H   0  0  0  0  0  0  0  0  0  0  0  0
    4.2814   -9.4603   39.6419 H   0  0  0  0  0  0  0  0  0  0  0  0
    1.8244   -9.3715   39.9646 H   0  0  0  0  0  0  0  0  0  0  0  0
    0.4741   -7.7249   38.7569 H   0  0  0  0  0  0  0  0  0  0  0  0
  1  2  1  0
  2  3  1  0
  3  4  1  0
  4  5  2  0
  5  6  1  0
  6  7  2  0
  7  8  1  0
  8  9  2  0
  2 10  1  0
 10 11  2  0
 10 12  1  0
 12 13  1  0
 13 14  2  0
 14 15  1  0
 15 16  2  0
 16 17  1  0
 17 18  2  0
 18 19  1  0
 19 20  1  0
 20 21  1  0
 21 22  1  0
 22 23  1  0
 23 24  1  0
 24 25  1  0
 25 26  1  0
 26 27  2  0
 27 28  1  0
 28 29  2  0
 29 30  1  0
 30 31  2  0
 25 32  1  0
 32 33  2  0
 32 34  2  0
  9  4  1  0
 20 12  2  0
 32 21  1  0
 19 15  1  0
 31 26  1  0
  1 35  1  0
  1 36  1  0
  1 37  1  0
  3 38  1  0
  3 39  1  0
  5 40  1  0
  6 41  1  0
  7 42  1  0
  8 43  1  0
  9 44  1  0
 13 45  1  0
 14 46  1  0
 18 47  1  0
 22 48  1  0
 22 49  1  0
 23 50  1  0
 23 51  1  0
 24 52  1  0
 24 53  1  0
 25 54  1  0
 27 55  1  0
 28 56  1  0
 29 57  1  0
 30 58  1  0
 31 59  1  0
M  END
>  <Energy>  (46) 
173.04296364244013

>  <compound_id>  (46) 
3876

>  <target_id>  (46) 
1

>  <reference_id>  (46) 
152

>  <inspiration_ids>  (46) 
[135, 152]

>  <energy_score>  (46) 
24.98380675168451

>  <distance_score>  (46) 
1.2772358324295143

>  <path>  (46) 
/opt/xchem-fragalysis-2/maxwin/BulkDock/SCRATCH/505735/C3876-P152/C3876-P152.minimised.mol

>  <scratch_subdir>  (46) 
/opt/xchem-fragalysis-2/maxwin/BulkDock/SCRATCH/505735/C3876-P152

>  <fragmenstein_runtime>  (46) 
7.506377458572388

>  <fragmenstein_outcome>  (46) 
too moved

>  <fragmenstein_mode>  (46) 
expansion

>  <fragmenstein_error>  (46) 


$$$$
C3760-P135
     RDKit          3D

 61 65  0  0  0  0  0  0  0  0999 V2000
    0.5475   -0.7723   32.6418 C   0  0  0  0  0  0  0  0  0  0  0  0
    1.8838   -1.4576   32.4895 N   0  0  0  0  0  0  0  0  0  0  0  0
    2.3399   -0.0316   32.1955 C   0  0  0  0  0  0  0  0  0  0  0  0
    2.0344    0.5669   30.8211 C   0  0  0  0  0  0  0  0  0  0  0  0
    2.6357    0.0469   29.6654 C   0  0  0  0  0  0  0  0  0  0  0  0
    2.2866    0.5194   28.3995 C   0  0  0  0  0  0  0  0  0  0  0  0
    1.3435    1.5332   28.2717 C   0  0  0  0  0  0  0  0  0  0  0  0
    0.7635    2.0868   29.4094 C   0  0  0  0  0  0  0  0  0  0  0  0
    1.1136    1.6163   30.6777 C   0  0  0  0  0  0  0  0  0  0  0  0
    1.7551   -2.6176   31.6014 C   0  0  0  0  0  0  0  0  0  0  0  0
    1.8888   -2.6993   30.4368 O   0  0  0  0  0  0  0  0  0  0  0  0
    1.3148   -3.6230   32.5828 N   0  0  0  0  0  0  0  0  0  0  0  0
    0.8533   -4.8955   32.4092 C   0  0  0  0  0  0  0  0  0  0  0  0
    0.9541   -5.4322   31.0474 C   0  0  0  0  0  0  0  0  0  0  0  0
    0.3173   -6.5435   30.6581 C   0  0  0  0  0  0  0  0  0  0  0  0
   -0.4941   -7.2279   31.5733 C   0  0  0  0  0  0  0  0  0  0  0  0
   -1.3340   -8.2237   31.4327 N   0  0  0  0  0  0  0  0  0  0  0  0
   -1.8481   -8.4843   32.6738 N   0  0  0  0  0  0  0  0  0  0  0  0
   -1.2883   -7.6680   33.5373 C   0  0  0  0  0  0  0  0  0  0  0  0
   -0.4556   -6.8064   32.8882 N   0  0  0  0  0  0  0  0  0  0  0  0
    0.2236   -5.6621   33.3338 C   0  0  0  0  0  0  0  0  0  0  0  0
    0.1557   -5.3092   34.7272 N   0  0  0  0  0  0  0  0  0  0  0  0
   -0.2640   -3.9829   35.2153 C   0  0  0  0  0  0  0  0  0  0  0  0
   -0.8883   -4.1245   36.6022 C   0  0  0  0  0  0  0  0  0  0  0  0
    0.1046   -4.6711   37.6318 C   0  0  0  0  0  0  0  0  0  0  0  0
    0.5788   -6.0822   37.2670 C   0  0  0  0  0  0  0  0  0  0  0  0
    1.5031   -6.6948   38.2978 C   0  0  0  0  0  0  0  0  0  0  0  0
    1.1472   -7.9131   38.8956 C   0  0  0  0  0  0  0  0  0  0  0  0
    1.9519   -8.5013   39.8718 C   0  0  0  0  0  0  0  0  0  0  0  0
    3.1303   -7.8806   40.2678 C   0  0  0  0  0  0  0  0  0  0  0  0
    3.5026   -6.6722   39.6854 C   0  0  0  0  0  0  0  0  0  0  0  0
    2.6946   -6.0805   38.7102 C   0  0  0  0  0  0  0  0  0  0  0  0
    1.3775   -6.0989   35.6452 S   0  0  0  0  0  0  0  0  0  0  0  0
    1.4744   -7.4612   35.1549 O   0  0  0  0  0  0  0  0  0  0  0  0
    2.5243   -5.2163   35.6259 O   0  0  0  0  0  0  0  0  0  0  0  0
   -0.1096   -1.5396   33.0794 H   0  0  0  0  0  0  0  0  0  0  0  0
    0.4746    0.0293   33.3916 H   0  0  0  0  0  0  0  0  0  0  0  0
    0.0396   -0.5704   31.6901 H   0  0  0  0  0  0  0  0  0  0  0  0
    2.2354    0.6799   33.0320 H   0  0  0  0  0  0  0  0  0  0  0  0
    3.4345   -0.1612   32.1768 H   0  0  0  0  0  0  0  0  0  0  0  0
    3.3585   -0.7637   29.7375 H   0  0  0  0  0  0  0  0  0  0  0  0
    2.7386    0.0820   27.5121 H   0  0  0  0  0  0  0  0  0  0  0  0
    1.0630    1.8936   27.2859 H   0  0  0  0  0  0  0  0  0  0  0  0
    0.0338    2.8855   29.3023 H   0  0  0  0  0  0  0  0  0  0  0  0
    0.6436    2.0624   31.5500 H   0  0  0  0  0  0  0  0  0  0  0  0
    1.3947   -3.2372   33.5090 H   0  0  0  0  0  0  0  0  0  0  0  0
    1.6051   -4.9470   30.3270 H   0  0  0  0  0  0  0  0  0  0  0  0
    0.4398   -6.9453   29.6703 H   0  0  0  0  0  0  0  0  0  0  0  0
   -1.4655   -7.6482   34.6012 H   0  0  0  0  0  0  0  0  0  0  0  0
    0.5828   -3.2934   35.2753 H   0  0  0  0  0  0  0  0  0  0  0  0
   -1.0032   -3.5515   34.5320 H   0  0  0  0  0  0  0  0  0  0  0  0
   -1.2467   -3.1439   36.9359 H   0  0  0  0  0  0  0  0  0  0  0  0
   -1.7591   -4.7866   36.5525 H   0  0  0  0  0  0  0  0  0  0  0  0
    0.9512   -3.9784   37.7131 H   0  0  0  0  0  0  0  0  0  0  0  0
   -0.3817   -4.6908   38.6152 H   0  0  0  0  0  0  0  0  0  0  0  0
   -0.3012   -6.7283   37.1471 H   0  0  0  0  0  0  0  0  0  0  0  0
    0.2405   -8.4379   38.6059 H   0  0  0  0  0  0  0  0  0  0  0  0
    1.6581   -9.4547   40.3087 H   0  0  0  0  0  0  0  0  0  0  0  0
    3.7601   -8.3426   41.0232 H   0  0  0  0  0  0  0  0  0  0  0  0
    4.4271   -6.1879   39.9901 H   0  0  0  0  0  0  0  0  0  0  0  0
    3.0190   -5.1360   38.2773 H   0  0  0  0  0  0  0  0  0  0  0  0
  1  2  1  0
  2  3  1  0
  3  4  1  0
  4  5  2  0
  5  6  1  0
  6  7  2  0
  7  8  1  0
  8  9  2  0
  2 10  1  0
 10 11  2  0
 10 12  1  0
 12 13  1  0
 13 14  1  0
 14 15  2  0
 15 16  1  0
 16 17  2  0
 17 18  1  0
 18 19  2  0
 19 20  1  0
 20 21  1  0
 21 22  1  0
 22 23  1  0
 23 24  1  0
 24 25  1  0
 25 26  1  0
 26 27  1  0
 27 28  2  0
 28 29  1  0
 29 30  2  0
 30 31  1  0
 31 32  2  0
 26 33  1  0
 33 34  2  0
 33 35  2  0
  9  4  1  0
 21 13  2  0
 33 22  1  0
 20 16  1  0
 32 27  1  0
  1 36  1  0
  1 37  1  0
  1 38  1  0
  3 39  1  0
  3 40  1  0
  5 41  1  0
  6 42  1  0
  7 43  1  0
  8 44  1  0
  9 45  1  0
 12 46  1  0
 14 47  1  0
 15 48  1  0
 19 49  1  0
 23 50  1  0
 23 51  1  0
 24 52  1  0
 24 53  1  0
 25 54  1  0
 25 55  1  0
 26 56  1  0
 28 57  1  0
 29 58  1  0
 30 59  1  0
 31 60  1  0
 32 61  1  0
M  END
>  <Energy>  (47) 
102.51552422864403

>  <compound_id>  (47) 
3760

>  <target_id>  (47) 
1

>  <reference_id>  (47) 
135

>  <inspiration_ids>  (47) 
[135, 153]

>  <energy_score>  (47) 
12.626642780298027

>  <distance_score>  (47) 
1.8843302560309467

>  <path>  (47) 
/opt/xchem-fragalysis-2/maxwin/BulkDock/SCRATCH/505735/C3760-P135/C3760-P135.minimised.mol

>  <scratch_subdir>  (47) 
/opt/xchem-fragalysis-2/maxwin/BulkDock/SCRATCH/505735/C3760-P135

>  <fragmenstein_runtime>  (47) 
10.800267934799194

>  <fragmenstein_outcome>  (47) 
too moved

>  <fragmenstein_mode>  (47) 
expansion

>  <fragmenstein_error>  (47) 


$$$$
C3760-P153
     RDKit          3D

 61 65  0  0  0  0  0  0  0  0999 V2000
    0.4876   -0.7681   33.2892 C   0  0  0  0  0  0  0  0  0  0  0  0
    1.8228   -1.4736   33.3065 N   0  0  0  0  0  0  0  0  0  0  0  0
    2.3391   -0.0383   33.2904 C   0  0  0  0  0  0  0  0  0  0  0  0
    2.3675    0.6962   31.9475 C   0  0  0  0  0  0  0  0  0  0  0  0
    3.2095    0.2573   30.9132 C   0  0  0  0  0  0  0  0  0  0  0  0
    3.1728    0.8512   29.6507 C   0  0  0  0  0  0  0  0  0  0  0  0
    2.3178    1.9200   29.4120 C   0  0  0  0  0  0  0  0  0  0  0  0
    1.5144    2.4032   30.4417 C   0  0  0  0  0  0  0  0  0  0  0  0
    1.5343    1.7976   31.7018 C   0  0  0  0  0  0  0  0  0  0  0  0
    1.8575   -2.5093   32.2681 C   0  0  0  0  0  0  0  0  0  0  0  0
    2.2122   -2.4491   31.1496 O   0  0  0  0  0  0  0  0  0  0  0  0
    1.2279   -3.6154   33.0099 N   0  0  0  0  0  0  0  0  0  0  0  0
    0.7969   -4.8434   32.5877 C   0  0  0  0  0  0  0  0  0  0  0  0
    0.9953   -5.1277   31.1734 C   0  0  0  0  0  0  0  0  0  0  0  0
    0.4190   -6.1639   30.5649 C   0  0  0  0  0  0  0  0  0  0  0  0
   -0.3989   -7.0333   31.2992 C   0  0  0  0  0  0  0  0  0  0  0  0
   -1.1422   -8.0359   30.9041 N   0  0  0  0  0  0  0  0  0  0  0  0
   -1.7351   -8.5512   32.0122 N   0  0  0  0  0  0  0  0  0  0  0  0
   -1.3358   -7.8538   33.0556 C   0  0  0  0  0  0  0  0  0  0  0  0
   -0.4914   -6.8452   32.6780 N   0  0  0  0  0  0  0  0  0  0  0  0
    0.1173   -5.7481   33.3438 C   0  0  0  0  0  0  0  0  0  0  0  0
    0.0912   -5.4587   34.7603 N   0  0  0  0  0  0  0  0  0  0  0  0
   -0.7953   -4.4239   35.3249 C   0  0  0  0  0  0  0  0  0  0  0  0
   -0.0232   -3.6516   36.4061 C   0  0  0  0  0  0  0  0  0  0  0  0
    1.1380   -4.4353   37.0497 C   0  0  0  0  0  0  0  0  0  0  0  0
    0.7434   -5.8848   37.3517 C   0  0  0  0  0  0  0  0  0  0  0  0
    1.6969   -6.7041   38.1886 C   0  0  0  0  0  0  0  0  0  0  0  0
    1.1701   -7.6837   39.0483 C   0  0  0  0  0  0  0  0  0  0  0  0
    2.0032   -8.4444   39.8676 C   0  0  0  0  0  0  0  0  0  0  0  0
    3.3788   -8.2495   39.8311 C   0  0  0  0  0  0  0  0  0  0  0  0
    3.9196   -7.2976   38.9700 C   0  0  0  0  0  0  0  0  0  0  0  0
    3.0862   -6.5293   38.1523 C   0  0  0  0  0  0  0  0  0  0  0  0
    0.3602   -6.7812   35.8191 S   0  0  0  0  0  0  0  0  0  0  0  0
   -0.9306   -7.4015   36.0193 O   0  0  0  0  0  0  0  0  0  0  0  0
    1.4975   -7.5021   35.2804 O   0  0  0  0  0  0  0  0  0  0  0  0
    0.1874   -0.3977   32.3009 H   0  0  0  0  0  0  0  0  0  0  0  0
   -0.2530   -1.5651   33.4583 H   0  0  0  0  0  0  0  0  0  0  0  0
    0.2746   -0.0890   34.1281 H   0  0  0  0  0  0  0  0  0  0  0  0
    2.0516    0.5935   34.1479 H   0  0  0  0  0  0  0  0  0  0  0  0
    3.4075   -0.1985   33.5115 H   0  0  0  0  0  0  0  0  0  0  0  0
    3.8809   -0.5854   31.0708 H   0  0  0  0  0  0  0  0  0  0  0  0
    3.8086    0.4713   28.8545 H   0  0  0  0  0  0  0  0  0  0  0  0
    2.2883    2.3846   28.4299 H   0  0  0  0  0  0  0  0  0  0  0  0
    0.8780    3.2631   30.2570 H   0  0  0  0  0  0  0  0  0  0  0  0
    0.8879    2.1893   32.4834 H   0  0  0  0  0  0  0  0  0  0  0  0
    1.1308   -3.3517   33.9773 H   0  0  0  0  0  0  0  0  0  0  0  0
    1.6439   -4.5035   30.5697 H   0  0  0  0  0  0  0  0  0  0  0  0
    0.5963   -6.3437   29.5217 H   0  0  0  0  0  0  0  0  0  0  0  0
   -1.6705   -8.0514   34.0587 H   0  0  0  0  0  0  0  0  0  0  0  0
   -1.1597   -3.7329   34.5586 H   0  0  0  0  0  0  0  0  0  0  0  0
   -1.6752   -4.8974   35.7704 H   0  0  0  0  0  0  0  0  0  0  0  0
    0.3831   -2.7264   35.9804 H   0  0  0  0  0  0  0  0  0  0  0  0
   -0.7319   -3.3364   37.1818 H   0  0  0  0  0  0  0  0  0  0  0  0
    2.0026   -4.4065   36.3741 H   0  0  0  0  0  0  0  0  0  0  0  0
    1.4423   -3.9202   37.9690 H   0  0  0  0  0  0  0  0  0  0  0  0
   -0.2112   -5.8327   37.8958 H   0  0  0  0  0  0  0  0  0  0  0  0
    0.0990   -7.8779   39.0819 H   0  0  0  0  0  0  0  0  0  0  0  0
    1.5729   -9.1982   40.5210 H   0  0  0  0  0  0  0  0  0  0  0  0
    4.0303   -8.8455   40.4641 H   0  0  0  0  0  0  0  0  0  0  0  0
    4.9965   -7.1532   38.9321 H   0  0  0  0  0  0  0  0  0  0  0  0
    3.5449   -5.8018   37.4875 H   0  0  0  0  0  0  0  0  0  0  0  0
  1  2  1  0
  2  3  1  0
  3  4  1  0
  4  5  2  0
  5  6  1  0
  6  7  2  0
  7  8  1  0
  8  9  2  0
  2 10  1  0
 10 11  2  0
 10 12  1  0
 12 13  1  0
 13 14  1  0
 14 15  2  0
 15 16  1  0
 16 17  2  0
 17 18  1  0
 18 19  2  0
 19 20  1  0
 20 21  1  0
 21 22  1  0
 22 23  1  0
 23 24  1  0
 24 25  1  0
 25 26  1  0
 26 27  1  0
 27 28  2  0
 28 29  1  0
 29 30  2  0
 30 31  1  0
 31 32  2  0
 26 33  1  0
 33 34  2  0
 33 35  2  0
  9  4  1  0
 21 13  2  0
 33 22  1  0
 20 16  1  0
 32 27  1  0
  1 36  1  0
  1 37  1  0
  1 38  1  0
  3 39  1  0
  3 40  1  0
  5 41  1  0
  6 42  1  0
  7 43  1  0
  8 44  1  0
  9 45  1  0
 12 46  1  0
 14 47  1  0
 15 48  1  0
 19 49  1  0
 23 50  1  0
 23 51  1  0
 24 52  1  0
 24 53  1  0
 25 54  1  0
 25 55  1  0
 26 56  1  0
 28 57  1  0
 29 58  1  0
 30 59  1  0
 31 60  1  0
 32 61  1  0
M  END
>  <Energy>  (48) 
109.68959570396179

>  <compound_id>  (48) 
3760

>  <target_id>  (48) 
1

>  <reference_id>  (48) 
153

>  <inspiration_ids>  (48) 
[135, 153]

>  <energy_score>  (48) 
19.800714255616867

>  <distance_score>  (48) 
2.01827865168446

>  <path>  (48) 
/opt/xchem-fragalysis-2/maxwin/BulkDock/SCRATCH/505735/C3760-P153/C3760-P153.minimised.mol

>  <scratch_subdir>  (48) 
/opt/xchem-fragalysis-2/maxwin/BulkDock/SCRATCH/505735/C3760-P153

>  <fragmenstein_runtime>  (48) 
9.831319093704224

>  <fragmenstein_outcome>  (48) 
too moved

>  <fragmenstein_mode>  (48) 
expansion

>  <fragmenstein_error>  (48) 


$$$$
C3910-P135
     RDKit          3D

 67 71  0  0  0  0  0  0  0  0999 V2000
    1.2286   -3.2509   33.0761 C   0  0  0  0  0  0  0  0  0  0  0  0
   -0.1909   -3.3790   33.5555 N   0  0  0  0  0  0  0  0  0  0  0  0
   -0.1704   -1.8342   33.3367 C   0  0  0  0  0  0  0  0  0  0  0  0
    0.0204   -1.2807   31.9105 C   0  0  0  0  0  0  0  0  0  0  0  0
    1.2179   -0.6242   31.5809 C   0  0  0  0  0  0  0  0  0  0  0  0
    1.6935   -0.6819   30.2714 C   0  0  0  0  0  0  0  0  0  0  0  0
    0.9641   -1.3766   29.2993 C   0  0  0  0  0  0  0  0  0  0  0  0
    1.6535   -2.0060   28.2255 N   0  0  0  0  0  0  0  0  0  0  0  0
    2.0872   -3.3522   28.6802 C   0  0  0  0  0  0  0  0  0  0  0  0
    3.2139   -4.0322   27.8601 C   0  0  0  0  0  0  0  0  0  0  0  0
    2.8116   -4.6674   26.5894 N   0  0  0  0  0  0  0  0  0  0  0  0
    4.3842   -3.1484   27.6083 C   0  0  0  0  0  0  0  0  0  0  0  0
    4.1792   -1.9236   27.0378 O   0  0  0  0  0  0  0  0  0  0  0  0
    5.4319   -1.4912   26.7382 C   0  0  0  0  0  0  0  0  0  0  0  0
    6.4033   -2.3153   27.0608 N   0  0  0  0  0  0  0  0  0  0  0  0
    5.7430   -3.3684   27.6500 C   0  0  0  0  0  0  0  0  0  0  0  0
    6.3217   -4.6474   28.0225 C   0  0  0  0  0  0  0  0  0  0  0  0
    6.2059   -5.0430   29.1466 O   0  0  0  0  0  0  0  0  0  0  0  0
    6.8833   -5.2709   26.8640 N   0  0  0  0  0  0  0  0  0  0  0  0
    7.3690   -6.5266   26.6730 C   0  0  0  0  0  0  0  0  0  0  0  0
    6.9851   -7.1826   25.5670 C   0  0  0  0  0  0  0  0  0  0  0  0
    7.3146   -8.4889   25.3404 N   0  0  0  0  0  0  0  0  0  0  0  0
    8.0977   -9.2440   26.1783 C   0  0  0  0  0  0  0  0  0  0  0  0
    8.3710  -10.4118   25.9335 O   0  0  0  0  0  0  0  0  0  0  0  0
    8.6280   -8.5451   27.3794 C   0  0  0  0  0  0  0  0  0  0  0  0
    9.5428   -9.2104   28.2043 C   0  0  0  0  0  0  0  0  0  0  0  0
   10.0910   -8.5582   29.3062 C   0  0  0  0  0  0  0  0  0  0  0  0
    9.7335   -7.2418   29.5763 C   0  0  0  0  0  0  0  0  0  0  0  0
    8.8374   -6.5714   28.7386 C   0  0  0  0  0  0  0  0  0  0  0  0
    8.2521   -7.2137   27.6363 C   0  0  0  0  0  0  0  0  0  0  0  0
   -0.3492   -1.7634   29.5756 C   0  0  0  0  0  0  0  0  0  0  0  0
   -0.8361   -1.6838   30.8784 C   0  0  0  0  0  0  0  0  0  0  0  0
   -0.8633   -4.4147   32.8323 C   0  0  0  0  0  0  0  0  0  0  0  0
   -1.5115   -4.3673   31.8172 O   0  0  0  0  0  0  0  0  0  0  0  0
   -0.5919   -5.7938   33.4476 C   0  0  0  0  0  0  0  0  0  0  0  0
   -0.6114   -6.8177   32.4106 N   0  0  0  0  0  0  0  0  0  0  0  0
    0.0001   -6.7634   31.1912 C   0  0  0  0  0  0  0  0  0  0  0  0
   -0.3538   -7.8028   30.4715 N   0  0  0  0  0  0  0  0  0  0  0  0
   -1.2053   -8.5602   31.2378 N   0  0  0  0  0  0  0  0  0  0  0  0
   -1.3362   -7.9660   32.4033 C   0  0  0  0  0  0  0  0  0  0  0  0
    1.3353   -3.2943   31.9853 H   0  0  0  0  0  0  0  0  0  0  0  0
    1.6926   -4.2064   33.3656 H   0  0  0  0  0  0  0  0  0  0  0  0
    1.8875   -2.5409   33.5985 H   0  0  0  0  0  0  0  0  0  0  0  0
    0.4248   -1.3139   34.1045 H   0  0  0  0  0  0  0  0  0  0  0  0
   -1.2036   -1.5559   33.5951 H   0  0  0  0  0  0  0  0  0  0  0  0
    1.8714   -0.2333   32.3576 H   0  0  0  0  0  0  0  0  0  0  0  0
    2.7017   -0.3377   30.0572 H   0  0  0  0  0  0  0  0  0  0  0  0
    2.4520   -1.4411   27.9369 H   0  0  0  0  0  0  0  0  0  0  0  0
    2.4651   -3.2885   29.7113 H   0  0  0  0  0  0  0  0  0  0  0  0
    1.2176   -4.0219   28.7075 H   0  0  0  0  0  0  0  0  0  0  0  0
    3.5457   -4.8667   28.4923 H   0  0  0  0  0  0  0  0  0  0  0  0
    3.4653   -5.4258   26.3796 H   0  0  0  0  0  0  0  0  0  0  0  0
    2.9961   -3.9842   25.8510 H   0  0  0  0  0  0  0  0  0  0  0  0
    5.5015   -0.5361   26.2456 H   0  0  0  0  0  0  0  0  0  0  0  0
    6.7339   -4.6661   26.0553 H   0  0  0  0  0  0  0  0  0  0  0  0
    6.3255   -6.7461   24.8203 H   0  0  0  0  0  0  0  0  0  0  0  0
    6.8589   -8.9701   24.5579 H   0  0  0  0  0  0  0  0  0  0  0  0
    9.8368  -10.2323   27.9752 H   0  0  0  0  0  0  0  0  0  0  0  0
   10.8059   -9.0732   29.9429 H   0  0  0  0  0  0  0  0  0  0  0  0
   10.1706   -6.7217   30.4252 H   0  0  0  0  0  0  0  0  0  0  0  0
    8.6361   -5.5267   28.9543 H   0  0  0  0  0  0  0  0  0  0  0  0
   -0.9409   -2.2623   28.8083 H   0  0  0  0  0  0  0  0  0  0  0  0
   -1.8108   -2.1146   31.0927 H   0  0  0  0  0  0  0  0  0  0  0  0
    0.3914   -5.8531   33.9206 H   0  0  0  0  0  0  0  0  0  0  0  0
   -1.3536   -6.0385   34.1890 H   0  0  0  0  0  0  0  0  0  0  0  0
    0.6398   -5.9550   30.8669 H   0  0  0  0  0  0  0  0  0  0  0  0
   -1.9341   -8.3211   33.2303 H   0  0  0  0  0  0  0  0  0  0  0  0
  1  2  1  0
  2  3  1  0
  3  4  1  0
  4  5  2  0
  5  6  1  0
  6  7  2  0
  7  8  1  0
  8  9  1  0
  9 10  1  0
 10 11  1  0
 10 12  1  0
 12 13  1  0
 13 14  1  0
 14 15  2  0
 15 16  1  0
 16 17  1  0
 17 18  2  0
 17 19  1  0
 19 20  1  0
 20 21  2  0
 21 22  1  0
 22 23  1  0
 23 24  2  0
 23 25  1  0
 25 26  2  0
 26 27  1  0
 27 28  2  0
 28 29  1  0
 29 30  2  0
  7 31  1  0
 31 32  2  0
  2 33  1  0
 33 34  2  0
 33 35  1  0
 35 36  1  0
 36 37  1  0
 37 38  2  0
 38 39  1  0
 39 40  2  0
 32  4  1  0
 40 36  1  0
 16 12  2  0
 30 20  1  0
 30 25  1  0
  1 41  1  0
  1 42  1  0
  1 43  1  0
  3 44  1  0
  3 45  1  0
  5 46  1  0
  6 47  1  0
  8 48  1  0
  9 49  1  0
  9 50  1  0
 10 51  1  0
 11 52  1  0
 11 53  1  0
 14 54  1  0
 19 55  1  0
 21 56  1  0
 22 57  1  0
 26 58  1  0
 27 59  1  0
 28 60  1  0
 29 61  1  0
 31 62  1  0
 32 63  1  0
 35 64  1  0
 35 65  1  0
 37 66  1  0
 40 67  1  0
M  END
>  <Energy>  (49) 
211.23720115568915

>  <compound_id>  (49) 
3910

>  <target_id>  (49) 
1

>  <reference_id>  (49) 
135

>  <inspiration_ids>  (49) 
[135, 154]

>  <energy_score>  (49) 
51.06507880179686

>  <distance_score>  (49) 
1.5813135963703018

>  <path>  (49) 
/opt/xchem-fragalysis-2/maxwin/BulkDock/SCRATCH/505735/C3910-P135/C3910-P135.minimised.mol

>  <scratch_subdir>  (49) 
/opt/xchem-fragalysis-2/maxwin/BulkDock/SCRATCH/505735/C3910-P135

>  <fragmenstein_runtime>  (49) 
20.08743667602539

>  <fragmenstein_outcome>  (49) 
too moved

>  <fragmenstein_mode>  (49) 
expansion

>  <fragmenstein_error>  (49) 


$$$$
C3910-P154
     RDKit          3D

 67 71  0  0  0  0  0  0  0  0999 V2000
    1.6878   -3.3150   32.4751 C   0  0  0  0  0  0  0  0  0  0  0  0
    0.3953   -3.3698   33.2495 N   0  0  0  0  0  0  0  0  0  0  0  0
    0.4624   -1.8340   33.0429 C   0  0  0  0  0  0  0  0  0  0  0  0
    0.4265   -1.2279   31.6331 C   0  0  0  0  0  0  0  0  0  0  0  0
    1.5664   -0.5713   31.1373 C   0  0  0  0  0  0  0  0  0  0  0  0
    1.7546   -0.4442   29.7617 C   0  0  0  0  0  0  0  0  0  0  0  0
    0.7965   -0.9471   28.8787 C   0  0  0  0  0  0  0  0  0  0  0  0
    1.1659   -1.2559   27.5464 N   0  0  0  0  0  0  0  0  0  0  0  0
    1.3549   -2.7279   27.4297 C   0  0  0  0  0  0  0  0  0  0  0  0
    2.3971   -3.1677   26.3729 C   0  0  0  0  0  0  0  0  0  0  0  0
    2.0269   -2.9534   24.9758 N   0  0  0  0  0  0  0  0  0  0  0  0
    3.7234   -2.5361   26.6001 C   0  0  0  0  0  0  0  0  0  0  0  0
    3.8656   -1.2171   26.2487 O   0  0  0  0  0  0  0  0  0  0  0  0
    5.1923   -0.9792   26.4101 C   0  0  0  0  0  0  0  0  0  0  0  0
    5.8949   -1.9931   26.8597 N   0  0  0  0  0  0  0  0  0  0  0  0
    4.9527   -2.9914   27.0144 C   0  0  0  0  0  0  0  0  0  0  0  0
    5.2584   -4.3378   27.4709 C   0  0  0  0  0  0  0  0  0  0  0  0
    4.7781   -4.7368   28.4939 O   0  0  0  0  0  0  0  0  0  0  0  0
    6.1615   -4.9644   26.5534 N   0  0  0  0  0  0  0  0  0  0  0  0
    6.6706   -6.2243   26.5227 C   0  0  0  0  0  0  0  0  0  0  0  0
    6.5751   -6.9426   25.3953 C   0  0  0  0  0  0  0  0  0  0  0  0
    7.0415   -8.2250   25.3059 N   0  0  0  0  0  0  0  0  0  0  0  0
    7.7109   -8.8780   26.3116 C   0  0  0  0  0  0  0  0  0  0  0  0
    8.1258  -10.0237   26.1844 O   0  0  0  0  0  0  0  0  0  0  0  0
    7.9225   -8.1005   27.5629 C   0  0  0  0  0  0  0  0  0  0  0  0
    8.7042   -8.6501   28.5860 C   0  0  0  0  0  0  0  0  0  0  0  0
    8.9571   -7.9158   29.7433 C   0  0  0  0  0  0  0  0  0  0  0  0
    8.4241   -6.6394   29.8822 C   0  0  0  0  0  0  0  0  0  0  0  0
    7.6527   -6.0872   28.8562 C   0  0  0  0  0  0  0  0  0  0  0  0
    7.3809   -6.8077   27.6810 C   0  0  0  0  0  0  0  0  0  0  0  0
   -0.4315   -1.3903   29.3820 C   0  0  0  0  0  0  0  0  0  0  0  0
   -0.6259   -1.5124   30.7564 C   0  0  0  0  0  0  0  0  0  0  0  0
   -0.4800   -4.3528   32.6796 C   0  0  0  0  0  0  0  0  0  0  0  0
   -1.3270   -4.2487   31.8268 O   0  0  0  0  0  0  0  0  0  0  0  0
   -0.1449   -5.7416   33.2343 C   0  0  0  0  0  0  0  0  0  0  0  0
   -0.3998   -6.7606   32.2312 N   0  0  0  0  0  0  0  0  0  0  0  0
   -0.0170   -6.7451   30.9223 C   0  0  0  0  0  0  0  0  0  0  0  0
   -0.5544   -7.7663   30.2960 N   0  0  0  0  0  0  0  0  0  0  0  0
   -1.2812   -8.4778   31.2195 N   0  0  0  0  0  0  0  0  0  0  0  0
   -1.1606   -7.8738   32.3795 C   0  0  0  0  0  0  0  0  0  0  0  0
    1.5564   -3.3185   31.3850 H   0  0  0  0  0  0  0  0  0  0  0  0
    2.1382   -4.3069   32.6326 H   0  0  0  0  0  0  0  0  0  0  0  0
    2.4858   -2.6639   32.8635 H   0  0  0  0  0  0  0  0  0  0  0  0
    1.2181   -1.3744   33.7011 H   0  0  0  0  0  0  0  0  0  0  0  0
   -0.4853   -1.5049   33.4966 H   0  0  0  0  0  0  0  0  0  0  0  0
    2.3794   -0.2893   31.8029 H   0  0  0  0  0  0  0  0  0  0  0  0
    2.7048   -0.0718   29.3883 H   0  0  0  0  0  0  0  0  0  0  0  0
    2.0106   -0.7554   27.2720 H   0  0  0  0  0  0  0  0  0  0  0  0
    1.6886   -3.1489   28.3904 H   0  0  0  0  0  0  0  0  0  0  0  0
    0.3875   -3.1907   27.2013 H   0  0  0  0  0  0  0  0  0  0  0  0
    2.5080   -4.2531   26.4855 H   0  0  0  0  0  0  0  0  0  0  0  0
    1.0058   -2.8750   24.8915 H   0  0  0  0  0  0  0  0  0  0  0  0
    2.3457   -2.0272   24.6857 H   0  0  0  0  0  0  0  0  0  0  0  0
    5.5380    0.0103   26.1551 H   0  0  0  0  0  0  0  0  0  0  0  0
    6.2894   -4.3556   25.7451 H   0  0  0  0  0  0  0  0  0  0  0  0
    6.0691   -6.5760   24.5060 H   0  0  0  0  0  0  0  0  0  0  0  0
    6.7983   -8.7637   24.4691 H   0  0  0  0  0  0  0  0  0  0  0  0
    9.1319   -9.6422   28.4660 H   0  0  0  0  0  0  0  0  0  0  0  0
    9.5830   -8.3315   30.5283 H   0  0  0  0  0  0  0  0  0  0  0  0
    8.6301   -6.0569   30.7766 H   0  0  0  0  0  0  0  0  0  0  0  0
    7.3032   -5.0669   28.9827 H   0  0  0  0  0  0  0  0  0  0  0  0
   -1.1952   -1.7615   28.7025 H   0  0  0  0  0  0  0  0  0  0  0  0
   -1.5471   -1.9638   31.1155 H   0  0  0  0  0  0  0  0  0  0  0  0
    0.9073   -5.8397   33.5132 H   0  0  0  0  0  0  0  0  0  0  0  0
   -0.7541   -5.9519   34.1148 H   0  0  0  0  0  0  0  0  0  0  0  0
    0.5988   -5.9774   30.4744 H   0  0  0  0  0  0  0  0  0  0  0  0
   -1.6062   -8.1894   33.3117 H   0  0  0  0  0  0  0  0  0  0  0  0
  1  2  1  0
  2  3  1  0
  3  4  1  0
  4  5  2  0
  5  6  1  0
  6  7  2  0
  7  8  1  0
  8  9  1  0
  9 10  1  0
 10 11  1  0
 10 12  1  0
 12 13  1  0
 13 14  1  0
 14 15  2  0
 15 16  1  0
 16 17  1  0
 17 18  2  0
 17 19  1  0
 19 20  1  0
 20 21  2  0
 21 22  1  0
 22 23  1  0
 23 24  2  0
 23 25  1  0
 25 26  2  0
 26 27  1  0
 27 28  2  0
 28 29  1  0
 29 30  2  0
  7 31  1  0
 31 32  2  0
  2 33  1  0
 33 34  2  0
 33 35  1  0
 35 36  1  0
 36 37  1  0
 37 38  2  0
 38 39  1  0
 39 40  2  0
 32  4  1  0
 40 36  1  0
 16 12  2  0
 30 20  1  0
 30 25  1  0
  1 41  1  0
  1 42  1  0
  1 43  1  0
  3 44  1  0
  3 45  1  0
  5 46  1  0
  6 47  1  0
  8 48  1  0
  9 49  1  0
  9 50  1  0
 10 51  1  0
 11 52  1  0
 11 53  1  0
 14 54  1  0
 19 55  1  0
 21 56  1  0
 22 57  1  0
 26 58  1  0
 27 59  1  0
 28 60  1  0
 29 61  1  0
 31 62  1  0
 32 63  1  0
 35 64  1  0
 35 65  1  0
 37 66  1  0
 40 67  1  0
M  END
>  <Energy>  (50) 
195.73080928157503

>  <compound_id>  (50) 
3910

>  <target_id>  (50) 
1

>  <reference_id>  (50) 
154

>  <inspiration_ids>  (50) 
[135, 154]

>  <energy_score>  (50) 
35.55868692767956

>  <distance_score>  (50) 
0.9414714329190617

>  <path>  (50) 
/opt/xchem-fragalysis-2/maxwin/BulkDock/SCRATCH/505735/C3910-P154/C3910-P154.minimised.mol

>  <scratch_subdir>  (50) 
/opt/xchem-fragalysis-2/maxwin/BulkDock/SCRATCH/505735/C3910-P154

>  <fragmenstein_runtime>  (50) 
16.182831525802612

>  <fragmenstein_outcome>  (50) 
too contorted

>  <fragmenstein_mode>  (50) 
expansion

>  <fragmenstein_error>  (50) 


$$$$
C3911-P135
     RDKit          3D

 70 74  0  0  0  0  0  0  0  0999 V2000
   -0.9721   -3.2299   34.9781 C   0  0  0  0  0  0  0  0  0  0  0  0
   -0.6797   -3.5759   33.5330 N   0  0  0  0  0  0  0  0  0  0  0  0
   -0.6614   -2.0653   33.4042 C   0  0  0  0  0  0  0  0  0  0  0  0
   -0.2567   -1.6332   31.9932 C   0  0  0  0  0  0  0  0  0  0  0  0
    0.6510   -0.5709   31.8524 C   0  0  0  0  0  0  0  0  0  0  0  0
    1.0550   -0.1405   30.5918 C   0  0  0  0  0  0  0  0  0  0  0  0
    0.5615   -0.7541   29.4385 C   0  0  0  0  0  0  0  0  0  0  0  0
    1.1596   -0.4426   28.1901 N   0  0  0  0  0  0  0  0  0  0  0  0
    2.4640   -1.1279   28.1009 C   0  0  0  0  0  0  0  0  0  0  0  0
    3.4260   -0.4371   27.1306 C   0  0  0  0  0  0  0  0  0  0  0  0
    4.7141   -1.1763   27.1864 C   0  0  0  0  0  0  0  0  0  0  0  0
    4.9427   -2.4641   26.9747 N   0  0  0  0  0  0  0  0  0  0  0  0
    6.1232   -2.6849   27.6673 C   0  0  0  0  0  0  0  0  0  0  0  0
    6.6964   -3.9972   27.9750 C   0  0  0  0  0  0  0  0  0  0  0  0
    7.2091   -4.1600   29.0460 O   0  0  0  0  0  0  0  0  0  0  0  0
    6.5243   -4.8956   26.8723 N   0  0  0  0  0  0  0  0  0  0  0  0
    6.9724   -6.1829   26.6747 C   0  0  0  0  0  0  0  0  0  0  0  0
    6.4007   -6.8720   25.6704 C   0  0  0  0  0  0  0  0  0  0  0  0
    6.6636   -8.1893   25.4233 N   0  0  0  0  0  0  0  0  0  0  0  0
    7.4988   -8.9711   26.1737 C   0  0  0  0  0  0  0  0  0  0  0  0
    7.6895  -10.1553   25.9246 O   0  0  0  0  0  0  0  0  0  0  0  0
    8.2124   -8.2763   27.2706 C   0  0  0  0  0  0  0  0  0  0  0  0
    9.1536   -9.0124   28.0084 C   0  0  0  0  0  0  0  0  0  0  0  0
    9.9647   -8.3724   28.9349 C   0  0  0  0  0  0  0  0  0  0  0  0
    9.8732   -6.9949   29.0716 C   0  0  0  0  0  0  0  0  0  0  0  0
    8.9418   -6.2677   28.3170 C   0  0  0  0  0  0  0  0  0  0  0  0
    8.0265   -6.8904   27.4591 C   0  0  0  0  0  0  0  0  0  0  0  0
    6.6219   -1.4839   28.1239 C   0  0  0  0  0  0  0  0  0  0  0  0
    7.8114   -1.1054   28.9104 C   0  0  0  0  0  0  0  0  0  0  0  0
    7.6352   -1.4746   30.3108 N   0  0  0  0  0  0  0  0  0  0  0  0
    5.7356   -0.5041   27.7944 O   0  0  0  0  0  0  0  0  0  0  0  0
   -0.3835   -1.7788   29.5656 C   0  0  0  0  0  0  0  0  0  0  0  0
   -0.7982   -2.2089   30.8351 C   0  0  0  0  0  0  0  0  0  0  0  0
    0.3800   -4.5312   33.4606 C   0  0  0  0  0  0  0  0  0  0  0  0
    1.5700   -4.3746   33.3679 O   0  0  0  0  0  0  0  0  0  0  0  0
   -0.1832   -5.9457   33.5631 C   0  0  0  0  0  0  0  0  0  0  0  0
   -0.3886   -6.6126   32.2960 N   0  0  0  0  0  0  0  0  0  0  0  0
    0.1246   -6.3150   31.0744 C   0  0  0  0  0  0  0  0  0  0  0  0
   -0.2966   -7.2021   30.1993 N   0  0  0  0  0  0  0  0  0  0  0  0
   -1.1088   -8.0929   30.8584 N   0  0  0  0  0  0  0  0  0  0  0  0
   -1.1396   -7.7378   32.1216 C   0  0  0  0  0  0  0  0  0  0  0  0
   -1.1356   -4.1908   35.4872 H   0  0  0  0  0  0  0  0  0  0  0  0
   -0.1073   -2.8226   35.5253 H   0  0  0  0  0  0  0  0  0  0  0  0
   -1.9125   -2.6872   35.1544 H   0  0  0  0  0  0  0  0  0  0  0  0
    0.0985   -1.5937   34.0485 H   0  0  0  0  0  0  0  0  0  0  0  0
   -1.6619   -1.6233   33.5363 H   0  0  0  0  0  0  0  0  0  0  0  0
    1.0783   -0.0809   32.7244 H   0  0  0  0  0  0  0  0  0  0  0  0
    1.7897    0.6563   30.5051 H   0  0  0  0  0  0  0  0  0  0  0  0
    0.5389   -0.7606   27.4416 H   0  0  0  0  0  0  0  0  0  0  0  0
    2.2979   -2.1722   27.8055 H   0  0  0  0  0  0  0  0  0  0  0  0
    2.9584   -1.1685   29.0825 H   0  0  0  0  0  0  0  0  0  0  0  0
    3.5697    0.6060   27.4374 H   0  0  0  0  0  0  0  0  0  0  0  0
    3.0484   -0.4060   26.1098 H   0  0  0  0  0  0  0  0  0  0  0  0
    5.9675   -4.4366   26.1551 H   0  0  0  0  0  0  0  0  0  0  0  0
    5.6547   -6.4382   25.0111 H   0  0  0  0  0  0  0  0  0  0  0  0
    6.1863   -8.6549   24.6423 H   0  0  0  0  0  0  0  0  0  0  0  0
    9.2694  -10.0795   27.8330 H   0  0  0  0  0  0  0  0  0  0  0  0
   10.6985   -8.9355   29.5044 H   0  0  0  0  0  0  0  0  0  0  0  0
   10.5442   -6.4687   29.7465 H   0  0  0  0  0  0  0  0  0  0  0  0
    8.9970   -5.1897   28.3972 H   0  0  0  0  0  0  0  0  0  0  0  0
    7.9852   -0.0262   28.8428 H   0  0  0  0  0  0  0  0  0  0  0  0
    8.7001   -1.6032   28.5070 H   0  0  0  0  0  0  0  0  0  0  0  0
    7.5033   -2.4919   30.3553 H   0  0  0  0  0  0  0  0  0  0  0  0
    8.5008   -1.2922   30.8137 H   0  0  0  0  0  0  0  0  0  0  0  0
   -0.7851   -2.2706   28.6816 H   0  0  0  0  0  0  0  0  0  0  0  0
   -1.5279   -3.0104   30.9057 H   0  0  0  0  0  0  0  0  0  0  0  0
    0.5202   -6.5582   34.1394 H   0  0  0  0  0  0  0  0  0  0  0  0
   -1.1381   -5.9571   34.0945 H   0  0  0  0  0  0  0  0  0  0  0  0
    0.7796   -5.4782   30.8665 H   0  0  0  0  0  0  0  0  0  0  0  0
   -1.6717   -8.2485   32.9134 H   0  0  0  0  0  0  0  0  0  0  0  0
  1  2  1  0
  2  3  1  0
  3  4  1  0
  4  5  2  0
  5  6  1  0
  6  7  2  0
  7  8  1  0
  8  9  1  0
  9 10  1  0
 10 11  1  0
 11 12  2  0
 12 13  1  0
 13 14  1  0
 14 15  2  0
 14 16  1  0
 16 17  1  0
 17 18  2  0
 18 19  1  0
 19 20  1  0
 20 21  2  0
 20 22  1  0
 22 23  2  0
 23 24  1  0
 24 25  2  0
 25 26  1  0
 26 27  2  0
 13 28  2  0
 28 29  1  0
 29 30  1  0
 28 31  1  0
  7 32  1  0
 32 33  2  0
  2 34  1  0
 34 35  2  0
 34 36  1  0
 36 37  1  0
 37 38  1  0
 38 39  2  0
 39 40  1  0
 40 41  2  0
 33  4  1  0
 41 37  1  0
 31 11  1  0
 27 17  1  0
 27 22  1  0
  1 42  1  0
  1 43  1  0
  1 44  1  0
  3 45  1  0
  3 46  1  0
  5 47  1  0
  6 48  1  0
  8 49  1  0
  9 50  1  0
  9 51  1  0
 10 52  1  0
 10 53  1  0
 16 54  1  0
 18 55  1  0
 19 56  1  0
 23 57  1  0
 24 58  1  0
 25 59  1  0
 26 60  1  0
 29 61  1  0
 29 62  1  0
 30 63  1  0
 30 64  1  0
 32 65  1  0
 33 66  1  0
 36 67  1  0
 36 68  1  0
 38 69  1  0
 41 70  1  0
M  END
>  <Energy>  (51) 
142.3530339316502

>  <compound_id>  (51) 
3911

>  <target_id>  (51) 
1

>  <reference_id>  (51) 
135

>  <inspiration_ids>  (51) 
[135, 155]

>  <energy_score>  (51) 
-3.8996991786608532

>  <distance_score>  (51) 
1.787668601527512

>  <path>  (51) 
/opt/xchem-fragalysis-2/maxwin/BulkDock/SCRATCH/505735/C3911-P135/C3911-P135.minimised.mol

>  <scratch_subdir>  (51) 
/opt/xchem-fragalysis-2/maxwin/BulkDock/SCRATCH/505735/C3911-P135

>  <fragmenstein_runtime>  (51) 
18.10217809677124

>  <fragmenstein_outcome>  (51) 
too moved

>  <fragmenstein_mode>  (51) 
expansion

>  <fragmenstein_error>  (51) 


$$$$
C3911-P155
     RDKit          3D

 70 74  0  0  0  0  0  0  0  0999 V2000
    1.7448   -3.8531   32.2126 C   0  0  0  0  0  0  0  0  0  0  0  0
    0.4845   -3.6162   33.0105 N   0  0  0  0  0  0  0  0  0  0  0  0
    0.8762   -2.1547   32.7831 C   0  0  0  0  0  0  0  0  0  0  0  0
    1.0575   -1.4962   31.4176 C   0  0  0  0  0  0  0  0  0  0  0  0
    2.2647   -0.8359   31.1451 C   0  0  0  0  0  0  0  0  0  0  0  0
    2.5215   -0.2876   29.8847 C   0  0  0  0  0  0  0  0  0  0  0  0
    1.6022   -0.4040   28.8463 C   0  0  0  0  0  0  0  0  0  0  0  0
    1.7860    0.1349   27.5816 N   0  0  0  0  0  0  0  0  0  0  0  0
    3.0514    0.6582   27.0602 C   0  0  0  0  0  0  0  0  0  0  0  0
    3.8368   -0.3426   26.2046 C   0  0  0  0  0  0  0  0  0  0  0  0
    4.5731   -1.3559   26.9945 C   0  0  0  0  0  0  0  0  0  0  0  0
    4.6901   -2.6591   26.7967 N   0  0  0  0  0  0  0  0  0  0  0  0
    5.4192   -3.0824   27.8963 C   0  0  0  0  0  0  0  0  0  0  0  0
    5.7808   -4.4688   28.1935 C   0  0  0  0  0  0  0  0  0  0  0  0
    5.8406   -4.8230   29.3380 O   0  0  0  0  0  0  0  0  0  0  0  0
    6.0727   -5.1719   26.9775 N   0  0  0  0  0  0  0  0  0  0  0  0
    6.5921   -6.4267   26.7612 C   0  0  0  0  0  0  0  0  0  0  0  0
    6.3694   -6.9776   25.5549 C   0  0  0  0  0  0  0  0  0  0  0  0
    6.7258   -8.2598   25.2435 N   0  0  0  0  0  0  0  0  0  0  0  0
    7.3248   -9.1341   26.1107 C   0  0  0  0  0  0  0  0  0  0  0  0
    7.6078  -10.2841   25.7965 O   0  0  0  0  0  0  0  0  0  0  0  0
    7.6407   -8.5915   27.4554 C   0  0  0  0  0  0  0  0  0  0  0  0
    8.2874   -9.4334   28.3747 C   0  0  0  0  0  0  0  0  0  0  0  0
    8.7277   -8.9243   29.5896 C   0  0  0  0  0  0  0  0  0  0  0  0
    8.5682   -7.5703   29.8550 C   0  0  0  0  0  0  0  0  0  0  0  0
    7.9170   -6.7391   28.9328 C   0  0  0  0  0  0  0  0  0  0  0  0
    7.3613   -7.2395   27.7472 C   0  0  0  0  0  0  0  0  0  0  0  0
    5.7926   -1.9914   28.6516 C   0  0  0  0  0  0  0  0  0  0  0  0
    6.6179   -1.8112   29.8618 C   0  0  0  0  0  0  0  0  0  0  0  0
    5.9714   -2.3976   31.0331 N   0  0  0  0  0  0  0  0  0  0  0  0
    5.2818   -0.8767   28.0607 O   0  0  0  0  0  0  0  0  0  0  0  0
    0.3648   -0.9985   29.1481 C   0  0  0  0  0  0  0  0  0  0  0  0
    0.0886   -1.5347   30.4138 C   0  0  0  0  0  0  0  0  0  0  0  0
   -0.5933   -4.3892   32.4714 C   0  0  0  0  0  0  0  0  0  0  0  0
   -1.4128   -4.1129   31.6327 O   0  0  0  0  0  0  0  0  0  0  0  0
   -0.5643   -5.7934   33.0717 C   0  0  0  0  0  0  0  0  0  0  0  0
   -0.7023   -6.8151   32.0524 N   0  0  0  0  0  0  0  0  0  0  0  0
   -0.2127   -6.8069   30.7813 C   0  0  0  0  0  0  0  0  0  0  0  0
   -0.5809   -7.9039   30.1601 N   0  0  0  0  0  0  0  0  0  0  0  0
   -1.3129   -8.6511   31.0492 N   0  0  0  0  0  0  0  0  0  0  0  0
   -1.3759   -7.9870   32.1811 C   0  0  0  0  0  0  0  0  0  0  0  0
    1.6065   -3.7963   31.1244 H   0  0  0  0  0  0  0  0  0  0  0  0
    2.6721   -3.4007   32.5976 H   0  0  0  0  0  0  0  0  0  0  0  0
    1.9538   -4.9255   32.3501 H   0  0  0  0  0  0  0  0  0  0  0  0
    1.6749   -1.8777   33.4925 H   0  0  0  0  0  0  0  0  0  0  0  0
    0.0032   -1.6275   33.1999 H   0  0  0  0  0  0  0  0  0  0  0  0
    3.0411   -0.7595   31.9044 H   0  0  0  0  0  0  0  0  0  0  0  0
    3.4756    0.2071   29.7411 H   0  0  0  0  0  0  0  0  0  0  0  0
    1.1960   -0.3302   26.8961 H   0  0  0  0  0  0  0  0  0  0  0  0
    3.6719    1.1119   27.8394 H   0  0  0  0  0  0  0  0  0  0  0  0
    2.7805    1.4946   26.4036 H   0  0  0  0  0  0  0  0  0  0  0  0
    4.5689    0.2089   25.6037 H   0  0  0  0  0  0  0  0  0  0  0  0
    3.1720   -0.8515   25.5060 H   0  0  0  0  0  0  0  0  0  0  0  0
    5.8269   -4.5796   26.1844 H   0  0  0  0  0  0  0  0  0  0  0  0
    5.8339   -6.4609   24.7628 H   0  0  0  0  0  0  0  0  0  0  0  0
    6.4322   -8.6433   24.3375 H   0  0  0  0  0  0  0  0  0  0  0  0
    8.4641  -10.4801   28.1328 H   0  0  0  0  0  0  0  0  0  0  0  0
    9.2293   -9.5745   30.3022 H   0  0  0  0  0  0  0  0  0  0  0  0
    8.9616   -7.1493   30.7770 H   0  0  0  0  0  0  0  0  0  0  0  0
    7.8905   -5.6817   29.1654 H   0  0  0  0  0  0  0  0  0  0  0  0
    6.7931   -0.7466   30.0499 H   0  0  0  0  0  0  0  0  0  0  0  0
    7.5970   -2.2800   29.7126 H   0  0  0  0  0  0  0  0  0  0  0  0
    5.8345   -3.3974   30.8421 H   0  0  0  0  0  0  0  0  0  0  0  0
    6.6226   -2.3588   31.8148 H   0  0  0  0  0  0  0  0  0  0  0  0
   -0.4092   -1.0585   28.3828 H   0  0  0  0  0  0  0  0  0  0  0  0
   -0.8812   -1.9943   30.5837 H   0  0  0  0  0  0  0  0  0  0  0  0
    0.3669   -6.0026   33.6068 H   0  0  0  0  0  0  0  0  0  0  0  0
   -1.3970   -5.8903   33.7737 H   0  0  0  0  0  0  0  0  0  0  0  0
    0.3644   -6.0009   30.3496 H   0  0  0  0  0  0  0  0  0  0  0  0
   -1.8835   -8.3054   33.0815 H   0  0  0  0  0  0  0  0  0  0  0  0
  1  2  1  0
  2  3  1  0
  3  4  1  0
  4  5  2  0
  5  6  1  0
  6  7  2  0
  7  8  1  0
  8  9  1  0
  9 10  1  0
 10 11  1  0
 11 12  2  0
 12 13  1  0
 13 14  1  0
 14 15  2  0
 14 16  1  0
 16 17  1  0
 17 18  2  0
 18 19  1  0
 19 20  1  0
 20 21  2  0
 20 22  1  0
 22 23  2  0
 23 24  1  0
 24 25  2  0
 25 26  1  0
 26 27  2  0
 13 28  2  0
 28 29  1  0
 29 30  1  0
 28 31  1  0
  7 32  1  0
 32 33  2  0
  2 34  1  0
 34 35  2  0
 34 36  1  0
 36 37  1  0
 37 38  1  0
 38 39  2  0
 39 40  1  0
 40 41  2  0
 33  4  1  0
 41 37  1  0
 31 11  1  0
 27 17  1  0
 27 22  1  0
  1 42  1  0
  1 43  1  0
  1 44  1  0
  3 45  1  0
  3 46  1  0
  5 47  1  0
  6 48  1  0
  8 49  1  0
  9 50  1  0
  9 51  1  0
 10 52  1  0
 10 53  1  0
 16 54  1  0
 18 55  1  0
 19 56  1  0
 23 57  1  0
 24 58  1  0
 25 59  1  0
 26 60  1  0
 29 61  1  0
 29 62  1  0
 30 63  1  0
 30 64  1  0
 32 65  1  0
 33 66  1  0
 36 67  1  0
 36 68  1  0
 38 69  1  0
 41 70  1  0
M  END
>  <Energy>  (52) 
144.58917259526683

>  <compound_id>  (52) 
3911

>  <target_id>  (52) 
1

>  <reference_id>  (52) 
155

>  <inspiration_ids>  (52) 
[135, 155]

>  <energy_score>  (52) 
-1.663560515046015

>  <distance_score>  (52) 
1.3837851498927303

>  <path>  (52) 
/opt/xchem-fragalysis-2/maxwin/BulkDock/SCRATCH/505735/C3911-P155/C3911-P155.minimised.mol

>  <scratch_subdir>  (52) 
/opt/xchem-fragalysis-2/maxwin/BulkDock/SCRATCH/505735/C3911-P155

>  <fragmenstein_runtime>  (52) 
13.201876640319824

>  <fragmenstein_outcome>  (52) 
too moved

>  <fragmenstein_mode>  (52) 
expansion

>  <fragmenstein_error>  (52) 


$$$$
C3878-P135
     RDKit          3D

 39 43  0  0  0  0  0  0  0  0999 V2000
   -1.4527   -7.2326   33.9693 N   0  0  0  0  0  0  0  0  0  0  0  0
   -1.2150   -7.2612   32.6373 C   0  0  0  0  0  0  0  0  0  0  0  0
   -1.5704   -8.2219   31.8092 N   0  0  0  0  0  0  0  0  0  0  0  0
   -0.8659   -8.0744   30.6409 N   0  0  0  0  0  0  0  0  0  0  0  0
   -0.0772   -7.0375   30.7966 C   0  0  0  0  0  0  0  0  0  0  0  0
    1.0213   -6.5411   30.0600 C   0  0  0  0  0  0  0  0  0  0  0  0
    1.7608   -5.5284   30.5393 C   0  0  0  0  0  0  0  0  0  0  0  0
    1.3533   -4.7939   31.7190 C   0  0  0  0  0  0  0  0  0  0  0  0
    2.0943   -3.6641   32.2726 C   0  0  0  0  0  0  0  0  0  0  0  0
    3.4431   -3.6473   32.1215 N   0  0  0  0  0  0  0  0  0  0  0  0
    4.0625   -2.5789   32.6697 C   0  0  0  0  0  0  0  0  0  0  0  0
    3.3693   -1.5852   33.3421 C   0  0  0  0  0  0  0  0  0  0  0  0
    2.0222   -1.6055   33.4887 N   0  0  0  0  0  0  0  0  0  0  0  0
    1.3885   -2.6710   32.9422 C   0  0  0  0  0  0  0  0  0  0  0  0
   -0.0229   -2.7616   32.9490 N   0  0  0  0  0  0  0  0  0  0  0  0
   -0.7301   -1.5058   32.6955 C   0  0  0  0  0  0  0  0  0  0  0  0
   -0.5392   -1.0566   31.2500 C   0  0  0  0  0  0  0  0  0  0  0  0
    0.4550   -0.1244   30.9147 C   0  0  0  0  0  0  0  0  0  0  0  0
    0.6940    0.2154   29.5809 C   0  0  0  0  0  0  0  0  0  0  0  0
   -0.0607   -0.3684   28.5668 C   0  0  0  0  0  0  0  0  0  0  0  0
   -1.0530   -1.2917   28.8817 C   0  0  0  0  0  0  0  0  0  0  0  0
   -1.2889   -1.6343   30.2140 C   0  0  0  0  0  0  0  0  0  0  0  0
   -0.6615   -3.9478   32.6046 C   0  0  0  0  0  0  0  0  0  0  0  0
   -1.8625   -4.0248   32.3463 O   0  0  0  0  0  0  0  0  0  0  0  0
    0.1857   -5.1434   32.3053 C   0  0  0  0  0  0  0  0  0  0  0  0
   -0.4097   -6.3603   31.9548 N   0  0  0  0  0  0  0  0  0  0  0  0
   -1.6465   -8.1576   34.3660 H   0  0  0  0  0  0  0  0  0  0  0  0
   -0.9150   -6.6347   34.5853 H   0  0  0  0  0  0  0  0  0  0  0  0
    1.3626   -7.0791   29.1892 H   0  0  0  0  0  0  0  0  0  0  0  0
    2.6500   -5.1941   30.0092 H   0  0  0  0  0  0  0  0  0  0  0  0
    5.1404   -2.5399   32.5565 H   0  0  0  0  0  0  0  0  0  0  0  0
    3.8814   -0.7344   33.7786 H   0  0  0  0  0  0  0  0  0  0  0  0
   -0.3876   -0.7340   33.3955 H   0  0  0  0  0  0  0  0  0  0  0  0
   -1.8020   -1.6364   32.8897 H   0  0  0  0  0  0  0  0  0  0  0  0
    1.0608    0.3350   31.6927 H   0  0  0  0  0  0  0  0  0  0  0  0
    1.4664    0.9376   29.3313 H   0  0  0  0  0  0  0  0  0  0  0  0
    0.1156   -0.1034   27.5287 H   0  0  0  0  0  0  0  0  0  0  0  0
   -1.6448   -1.7456   28.0875 H   0  0  0  0  0  0  0  0  0  0  0  0
   -2.0634   -2.3658   30.4314 H   0  0  0  0  0  0  0  0  0  0  0  0
  1  2  1  0
  2  3  2  0
  3  4  1  0
  4  5  2  0
  5  6  1  0
  6  7  2  0
  7  8  1  0
  8  9  1  0
  9 10  2  0
 10 11  1  0
 11 12  2  0
 12 13  1  0
 13 14  2  0
 14 15  1  0
 15 16  1  0
 16 17  1  0
 17 18  2  0
 18 19  1  0
 19 20  2  0
 20 21  1  0
 21 22  2  0
 15 23  1  0
 23 24  2  0
 23 25  1  0
 25 26  1  0
 26  2  1  0
 26  5  1  0
 25  8  2  0
 14  9  1  0
 22 17  1  0
  1 27  1  0
  1 28  1  0
  6 29  1  0
  7 30  1  0
 11 31  1  0
 12 32  1  0
 16 33  1  0
 16 34  1  0
 18 35  1  0
 19 36  1  0
 20 37  1  0
 21 38  1  0
 22 39  1  0
M  END
>  <Energy>  (53) 
104.55778209715575

>  <compound_id>  (53) 
3878

>  <target_id>  (53) 
1

>  <reference_id>  (53) 
135

>  <inspiration_ids>  (53) 
[135, 156]

>  <energy_score>  (53) 
-38.341282639440294

>  <distance_score>  (53) 
0.8244035796303105

>  <path>  (53) 
/opt/xchem-fragalysis-2/maxwin/BulkDock/SCRATCH/505735/C3878-P135/C3878-P135.minimised.mol

>  <scratch_subdir>  (53) 
/opt/xchem-fragalysis-2/maxwin/BulkDock/SCRATCH/505735/C3878-P135

>  <fragmenstein_runtime>  (53) 
1.63407301902771

>  <fragmenstein_outcome>  (53) 
acceptable

>  <fragmenstein_mode>  (53) 
expansion

>  <fragmenstein_error>  (53) 


$$$$
C3878-P156
     RDKit          3D

 39 43  0  0  0  0  0  0  0  0999 V2000
   -1.4801   -7.1195   34.1934 N   0  0  0  0  0  0  0  0  0  0  0  0
   -1.2776   -7.2156   32.8588 C   0  0  0  0  0  0  0  0  0  0  0  0
   -1.6677   -8.2095   32.0878 N   0  0  0  0  0  0  0  0  0  0  0  0
   -0.9929   -8.1284   30.8974 N   0  0  0  0  0  0  0  0  0  0  0  0
   -0.1853   -7.0994   30.9887 C   0  0  0  0  0  0  0  0  0  0  0  0
    0.9113   -6.6676   30.2189 C   0  0  0  0  0  0  0  0  0  0  0  0
    1.6772   -5.6428   30.6269 C   0  0  0  0  0  0  0  0  0  0  0  0
    1.3009   -4.8358   31.7688 C   0  0  0  0  0  0  0  0  0  0  0  0
    2.0717   -3.6973   32.2638 C   0  0  0  0  0  0  0  0  0  0  0  0
    3.4174   -3.7092   32.0890 N   0  0  0  0  0  0  0  0  0  0  0  0
    4.0655   -2.6370   32.5967 C   0  0  0  0  0  0  0  0  0  0  0  0
    3.4029   -1.6130   33.2545 C   0  0  0  0  0  0  0  0  0  0  0  0
    2.0588   -1.6045   33.4256 N   0  0  0  0  0  0  0  0  0  0  0  0
    1.3965   -2.6718   32.9181 C   0  0  0  0  0  0  0  0  0  0  0  0
   -0.0162   -2.7350   32.9522 N   0  0  0  0  0  0  0  0  0  0  0  0
   -0.7051   -1.4718   32.6888 C   0  0  0  0  0  0  0  0  0  0  0  0
   -0.5119   -1.0360   31.2399 C   0  0  0  0  0  0  0  0  0  0  0  0
    0.4661   -0.0883   30.9015 C   0  0  0  0  0  0  0  0  0  0  0  0
    0.7013    0.2491   29.5665 C   0  0  0  0  0  0  0  0  0  0  0  0
   -0.0403   -0.3537   28.5538 C   0  0  0  0  0  0  0  0  0  0  0  0
   -1.0132   -1.2962   28.8716 C   0  0  0  0  0  0  0  0  0  0  0  0
   -1.2454   -1.6361   30.2052 C   0  0  0  0  0  0  0  0  0  0  0  0
   -0.6807   -3.9168   32.6491 C   0  0  0  0  0  0  0  0  0  0  0  0
   -1.8832   -3.9815   32.3953 O   0  0  0  0  0  0  0  0  0  0  0  0
    0.1403   -5.1384   32.3935 C   0  0  0  0  0  0  0  0  0  0  0  0
   -0.4813   -6.3596   32.1148 N   0  0  0  0  0  0  0  0  0  0  0  0
   -1.6790   -8.0230   34.6317 H   0  0  0  0  0  0  0  0  0  0  0  0
   -0.8939   -6.5219   34.7650 H   0  0  0  0  0  0  0  0  0  0  0  0
    1.2221   -7.2773   29.3913 H   0  0  0  0  0  0  0  0  0  0  0  0
    2.5677   -5.3604   30.0699 H   0  0  0  0  0  0  0  0  0  0  0  0
    5.1417   -2.6205   32.4628 H   0  0  0  0  0  0  0  0  0  0  0  0
    3.9383   -0.7603   33.6584 H   0  0  0  0  0  0  0  0  0  0  0  0
   -0.3485   -0.7008   33.3827 H   0  0  0  0  0  0  0  0  0  0  0  0
   -1.7785   -1.5836   32.8860 H   0  0  0  0  0  0  0  0  0  0  0  0
    1.0612    0.3867   31.6787 H   0  0  0  0  0  0  0  0  0  0  0  0
    1.4597    0.9857   29.3158 H   0  0  0  0  0  0  0  0  0  0  0  0
    0.1303   -0.0882   27.5151 H   0  0  0  0  0  0  0  0  0  0  0  0
   -1.5942   -1.7665   28.0792 H   0  0  0  0  0  0  0  0  0  0  0  0
   -2.0055   -2.3814   30.4251 H   0  0  0  0  0  0  0  0  0  0  0  0
  1  2  1  0
  2  3  2  0
  3  4  1  0
  4  5  2  0
  5  6  1  0
  6  7  2  0
  7  8  1  0
  8  9  1  0
  9 10  2  0
 10 11  1  0
 11 12  2  0
 12 13  1  0
 13 14  2  0
 14 15  1  0
 15 16  1  0
 16 17  1  0
 17 18  2  0
 18 19  1  0
 19 20  2  0
 20 21  1  0
 21 22  2  0
 15 23  1  0
 23 24  2  0
 23 25  1  0
 25 26  1  0
 26  2  1  0
 26  5  1  0
 25  8  2  0
 14  9  1  0
 22 17  1  0
  1 27  1  0
  1 28  1  0
  6 29  1  0
  7 30  1  0
 11 31  1  0
 12 32  1  0
 16 33  1  0
 16 34  1  0
 18 35  1  0
 19 36  1  0
 20 37  1  0
 21 38  1  0
 22 39  1  0
M  END
>  <Energy>  (54) 
104.5449622857052

>  <compound_id>  (54) 
3878

>  <target_id>  (54) 
1

>  <reference_id>  (54) 
156

>  <inspiration_ids>  (54) 
[135, 156]

>  <energy_score>  (54) 
-38.35410245089014

>  <distance_score>  (54) 
0.7786372266265918

>  <path>  (54) 
/opt/xchem-fragalysis-2/maxwin/BulkDock/SCRATCH/505735/C3878-P156/C3878-P156.minimised.mol

>  <scratch_subdir>  (54) 
/opt/xchem-fragalysis-2/maxwin/BulkDock/SCRATCH/505735/C3878-P156

>  <fragmenstein_runtime>  (54) 
1.679828405380249

>  <fragmenstein_outcome>  (54) 
acceptable

>  <fragmenstein_mode>  (54) 
expansion

>  <fragmenstein_error>  (54) 


$$$$
C3878-P135
     RDKit          3D

 39 43  0  0  0  0  0  0  0  0999 V2000
   -1.3974   -6.7609   34.1808 N   0  0  0  0  0  0  0  0  0  0  0  0
   -1.2307   -7.0886   32.8792 C   0  0  0  0  0  0  0  0  0  0  0  0
   -1.5969   -8.2010   32.2804 N   0  0  0  0  0  0  0  0  0  0  0  0
   -0.9817   -8.2544   31.0539 N   0  0  0  0  0  0  0  0  0  0  0  0
   -0.2061   -7.1997   30.9744 C   0  0  0  0  0  0  0  0  0  0  0  0
    0.8374   -6.8390   30.1010 C   0  0  0  0  0  0  0  0  0  0  0  0
    1.5650   -5.7285   30.3242 C   0  0  0  0  0  0  0  0  0  0  0  0
    1.2213   -4.7995   31.3873 C   0  0  0  0  0  0  0  0  0  0  0  0
    2.0131   -3.6301   31.7819 C   0  0  0  0  0  0  0  0  0  0  0  0
    3.3149   -3.5856   31.4078 N   0  0  0  0  0  0  0  0  0  0  0  0
    4.0018   -2.5112   31.8621 C   0  0  0  0  0  0  0  0  0  0  0  0
    3.4277   -1.5407   32.6675 C   0  0  0  0  0  0  0  0  0  0  0  0
    2.1299   -1.5842   33.0408 N   0  0  0  0  0  0  0  0  0  0  0  0
    1.4260   -2.6458   32.5786 C   0  0  0  0  0  0  0  0  0  0  0  0
    0.0319   -2.7150   32.7944 N   0  0  0  0  0  0  0  0  0  0  0  0
   -0.6776   -1.4449   32.6246 C   0  0  0  0  0  0  0  0  0  0  0  0
   -0.5775   -0.9686   31.1781 C   0  0  0  0  0  0  0  0  0  0  0  0
    0.3563    0.0142   30.8143 C   0  0  0  0  0  0  0  0  0  0  0  0
    0.5417    0.3605   29.4747 C   0  0  0  0  0  0  0  0  0  0  0  0
   -0.2101   -0.2648   28.4840 C   0  0  0  0  0  0  0  0  0  0  0  0
   -1.1465   -1.2351   28.8278 C   0  0  0  0  0  0  0  0  0  0  0  0
   -1.3286   -1.5851   30.1661 C   0  0  0  0  0  0  0  0  0  0  0  0
   -0.6581   -3.8836   32.5308 C   0  0  0  0  0  0  0  0  0  0  0  0
   -1.8822   -3.9538   32.4305 O   0  0  0  0  0  0  0  0  0  0  0  0
    0.1203   -5.0766   32.1174 C   0  0  0  0  0  0  0  0  0  0  0  0
   -0.4781   -6.3296   32.0056 N   0  0  0  0  0  0  0  0  0  0  0  0
   -1.8040   -5.8320   34.3517 H   0  0  0  0  0  0  0  0  0  0  0  0
   -1.9225   -7.4648   34.6932 H   0  0  0  0  0  0  0  0  0  0  0  0
    1.1242   -7.5590   29.3496 H   0  0  0  0  0  0  0  0  0  0  0  0
    2.4150   -5.4800   29.6930 H   0  0  0  0  0  0  0  0  0  0  0  0
    5.0438   -2.4525   31.5656 H   0  0  0  0  0  0  0  0  0  0  0  0
    3.9997   -0.6927   33.0280 H   0  0  0  0  0  0  0  0  0  0  0  0
   -0.2716   -0.6978   33.3174 H   0  0  0  0  0  0  0  0  0  0  0  0
   -1.7357   -1.5641   32.8877 H   0  0  0  0  0  0  0  0  0  0  0  0
    0.9628    0.5023   31.5742 H   0  0  0  0  0  0  0  0  0  0  0  0
    1.2689    1.1204   29.2024 H   0  0  0  0  0  0  0  0  0  0  0  0
   -0.0786    0.0070   27.4413 H   0  0  0  0  0  0  0  0  0  0  0  0
   -1.7372   -1.7184   28.0502 H   0  0  0  0  0  0  0  0  0  0  0  0
   -2.0582   -2.3541   30.4066 H   0  0  0  0  0  0  0  0  0  0  0  0
  1  2  1  0
  2  3  2  0
  3  4  1  0
  4  5  2  0
  5  6  1  0
  6  7  2  0
  7  8  1  0
  8  9  1  0
  9 10  2  0
 10 11  1  0
 11 12  2  0
 12 13  1  0
 13 14  2  0
 14 15  1  0
 15 16  1  0
 16 17  1  0
 17 18  2  0
 18 19  1  0
 19 20  2  0
 20 21  1  0
 21 22  2  0
 15 23  1  0
 23 24  2  0
 23 25  1  0
 25 26  1  0
 26  2  1  0
 26  5  1  0
 25  8  2  0
 14  9  1  0
 22 17  1  0
  1 27  1  0
  1 28  1  0
  6 29  1  0
  7 30  1  0
 11 31  1  0
 12 32  1  0
 16 33  1  0
 16 34  1  0
 18 35  1  0
 19 36  1  0
 20 37  1  0
 21 38  1  0
 22 39  1  0
M  END
>  <Energy>  (55) 
95.029600342763999

>  <compound_id>  (55) 
3878

>  <target_id>  (55) 
1

>  <reference_id>  (55) 
135

>  <inspiration_ids>  (55) 
[135, 157]

>  <energy_score>  (55) 
-47.86946439383276

>  <distance_score>  (55) 
0.8499059164053272

>  <path>  (55) 
/opt/xchem-fragalysis-2/maxwin/BulkDock/SCRATCH/505735/C3878-P135/C3878-P135.minimised.mol

>  <scratch_subdir>  (55) 
/opt/xchem-fragalysis-2/maxwin/BulkDock/SCRATCH/505735/C3878-P135

>  <fragmenstein_runtime>  (55) 
1.712888240814209

>  <fragmenstein_outcome>  (55) 
acceptable

>  <fragmenstein_mode>  (55) 
expansion

>  <fragmenstein_error>  (55) 


$$$$
C3878-P157
     RDKit          3D

 39 43  0  0  0  0  0  0  0  0999 V2000
   -1.5151   -6.9308   34.4190 N   0  0  0  0  0  0  0  0  0  0  0  0
   -1.3732   -7.1573   33.0953 C   0  0  0  0  0  0  0  0  0  0  0  0
   -1.8008   -8.2210   32.4476 N   0  0  0  0  0  0  0  0  0  0  0  0
   -1.1928   -8.2658   31.2248 N   0  0  0  0  0  0  0  0  0  0  0  0
   -0.3801   -7.2413   31.1809 C   0  0  0  0  0  0  0  0  0  0  0  0
    0.6770   -6.9195   30.3194 C   0  0  0  0  0  0  0  0  0  0  0  0
    1.4502   -5.8442   30.5484 C   0  0  0  0  0  0  0  0  0  0  0  0
    1.1332   -4.9036   31.6088 C   0  0  0  0  0  0  0  0  0  0  0  0
    1.9440   -3.7324   31.9585 C   0  0  0  0  0  0  0  0  0  0  0  0
    3.2500   -3.7235   31.5956 N   0  0  0  0  0  0  0  0  0  0  0  0
    3.9458   -2.6342   31.9978 C   0  0  0  0  0  0  0  0  0  0  0  0
    3.3768   -1.6187   32.7492 C   0  0  0  0  0  0  0  0  0  0  0  0
    2.0756   -1.6296   33.1140 N   0  0  0  0  0  0  0  0  0  0  0  0
    1.3607   -2.7014   32.6936 C   0  0  0  0  0  0  0  0  0  0  0  0
   -0.0397   -2.7359   32.8724 N   0  0  0  0  0  0  0  0  0  0  0  0
   -0.7173   -1.4564   32.6449 C   0  0  0  0  0  0  0  0  0  0  0  0
   -0.5572   -1.0020   31.1965 C   0  0  0  0  0  0  0  0  0  0  0  0
    0.3835   -0.0175   30.8554 C   0  0  0  0  0  0  0  0  0  0  0  0
    0.6063    0.3260   29.5200 C   0  0  0  0  0  0  0  0  0  0  0  0
   -0.1147   -0.3036   28.5094 C   0  0  0  0  0  0  0  0  0  0  0  0
   -1.0553   -1.2772   28.8306 C   0  0  0  0  0  0  0  0  0  0  0  0
   -1.2729   -1.6260   30.1645 C   0  0  0  0  0  0  0  0  0  0  0  0
   -0.7469   -3.9016   32.6244 C   0  0  0  0  0  0  0  0  0  0  0  0
   -1.9600   -3.9332   32.4276 O   0  0  0  0  0  0  0  0  0  0  0  0
    0.0245   -5.1455   32.3458 C   0  0  0  0  0  0  0  0  0  0  0  0
   -0.6148   -6.3840   32.2330 N   0  0  0  0  0  0  0  0  0  0  0  0
   -0.9146   -6.2768   34.9071 H   0  0  0  0  0  0  0  0  0  0  0  0
   -1.6727   -7.7882   34.9564 H   0  0  0  0  0  0  0  0  0  0  0  0
    0.9135   -7.6597   29.5781 H   0  0  0  0  0  0  0  0  0  0  0  0
    2.3075   -5.6270   29.9158 H   0  0  0  0  0  0  0  0  0  0  0  0
    4.9901   -2.6017   31.7056 H   0  0  0  0  0  0  0  0  0  0  0  0
    3.9553   -0.7595   33.0708 H   0  0  0  0  0  0  0  0  0  0  0  0
   -0.3236   -0.7048   33.3402 H   0  0  0  0  0  0  0  0  0  0  0  0
   -1.7866   -1.5496   32.8712 H   0  0  0  0  0  0  0  0  0  0  0  0
    0.9635    0.4776   31.6312 H   0  0  0  0  0  0  0  0  0  0  0  0
    1.3376    1.0889   29.2677 H   0  0  0  0  0  0  0  0  0  0  0  0
    0.0434   -0.0339   27.4696 H   0  0  0  0  0  0  0  0  0  0  0  0
   -1.6248   -1.7641   28.0399 H   0  0  0  0  0  0  0  0  0  0  0  0
   -2.0077   -2.3962   30.3851 H   0  0  0  0  0  0  0  0  0  0  0  0
  1  2  1  0
  2  3  2  0
  3  4  1  0
  4  5  2  0
  5  6  1  0
  6  7  2  0
  7  8  1  0
  8  9  1  0
  9 10  2  0
 10 11  1  0
 11 12  2  0
 12 13  1  0
 13 14  2  0
 14 15  1  0
 15 16  1  0
 16 17  1  0
 17 18  2  0
 18 19  1  0
 19 20  2  0
 20 21  1  0
 21 22  2  0
 15 23  1  0
 23 24  2  0
 23 25  1  0
 25 26  1  0
 26  2  1  0
 26  5  1  0
 25  8  2  0
 14  9  1  0
 22 17  1  0
  1 27  1  0
  1 28  1  0
  6 29  1  0
  7 30  1  0
 11 31  1  0
 12 32  1  0
 16 33  1  0
 16 34  1  0
 18 35  1  0
 19 36  1  0
 20 37  1  0
 21 38  1  0
 22 39  1  0
M  END
>  <Energy>  (56) 
102.72699907188434

>  <compound_id>  (56) 
3878

>  <target_id>  (56) 
1

>  <reference_id>  (56) 
157

>  <inspiration_ids>  (56) 
[135, 157]

>  <energy_score>  (56) 
-40.172065664712505

>  <distance_score>  (56) 
0.764894635576075

>  <path>  (56) 
/opt/xchem-fragalysis-2/maxwin/BulkDock/SCRATCH/505735/C3878-P157/C3878-P157.minimised.mol

>  <scratch_subdir>  (56) 
/opt/xchem-fragalysis-2/maxwin/BulkDock/SCRATCH/505735/C3878-P157

>  <fragmenstein_runtime>  (56) 
1.727665662765503

>  <fragmenstein_outcome>  (56) 
acceptable

>  <fragmenstein_mode>  (56) 
expansion

>  <fragmenstein_error>  (56) 


$$$$
C2373-P135
     RDKit          3D

 47 50  0  0  0  0  0  0  0  0999 V2000
   -2.6733   -1.7213   33.8045 C   0  0  0  0  0  0  0  0  0  0  0  0
   -1.4025   -2.1480   33.1131 N   0  0  0  0  0  0  0  0  0  0  0  0
   -1.7859   -0.9772   32.2449 C   0  0  0  0  0  0  0  0  0  0  0  0
   -0.8430   -0.9491   31.0400 C   0  0  0  0  0  0  0  0  0  0  0  0
    0.3863   -0.2767   31.0899 C   0  0  0  0  0  0  0  0  0  0  0  0
    1.1772   -0.1622   29.9436 C   0  0  0  0  0  0  0  0  0  0  0  0
    0.7509   -0.7212   28.7419 C   0  0  0  0  0  0  0  0  0  0  0  0
   -0.4473   -1.4250   28.6963 C   0  0  0  0  0  0  0  0  0  0  0  0
   -1.2254   -1.5610   29.8413 C   0  0  0  0  0  0  0  0  0  0  0  0
   -0.2744   -2.3114   34.0980 C   0  0  0  0  0  0  0  0  0  0  0  0
    0.5218   -1.5360   34.4770 O   0  0  0  0  0  0  0  0  0  0  0  0
   -0.2315   -3.7406   34.5446 C   0  0  0  0  0  0  0  0  0  0  0  0
   -0.7303   -4.0804   35.8799 C   0  0  0  0  0  0  0  0  0  0  0  0
   -0.6050   -5.3117   36.4090 C   0  0  0  0  0  0  0  0  0  0  0  0
    0.0941   -6.2972   35.6807 C   0  0  0  0  0  0  0  0  0  0  0  0
    0.5249   -7.4986   35.9907 N   0  0  0  0  0  0  0  0  0  0  0  0
    1.3052   -7.9396   34.9504 N   0  0  0  0  0  0  0  0  0  0  0  0
    1.2435   -7.0390   34.0046 C   0  0  0  0  0  0  0  0  0  0  0  0
    0.5404   -5.9516   34.4193 N   0  0  0  0  0  0  0  0  0  0  0  0
    0.3671   -4.7045   33.8094 C   0  0  0  0  0  0  0  0  0  0  0  0
    1.0299   -4.4699   32.2151 S   0  0  0  0  0  0  0  0  0  0  0  0
   -0.3917   -4.9260   31.2196 C   0  0  0  0  0  0  0  0  0  0  0  0
   -0.5706   -6.3951   31.1931 C   0  0  0  0  0  0  0  0  0  0  0  0
   -1.3490   -7.0348   32.1428 C   0  0  0  0  0  0  0  0  0  0  0  0
   -1.5769   -8.3717   31.9969 C   0  0  0  0  0  0  0  0  0  0  0  0
   -1.1255   -9.0812   30.9515 N   0  0  0  0  0  0  0  0  0  0  0  0
   -0.2729   -8.4675   30.1070 C   0  0  0  0  0  0  0  0  0  0  0  0
    0.0674   -7.1449   30.2230 C   0  0  0  0  0  0  0  0  0  0  0  0
   -2.6512   -0.7253   34.2759 H   0  0  0  0  0  0  0  0  0  0  0  0
   -2.7606   -2.3779   34.6804 H   0  0  0  0  0  0  0  0  0  0  0  0
   -3.5918   -1.9482   33.2418 H   0  0  0  0  0  0  0  0  0  0  0  0
   -1.6140   -0.0113   32.7497 H   0  0  0  0  0  0  0  0  0  0  0  0
   -2.7875   -1.0133   31.7841 H   0  0  0  0  0  0  0  0  0  0  0  0
    0.7264    0.1770   32.0189 H   0  0  0  0  0  0  0  0  0  0  0  0
    2.1204    0.3758   29.9874 H   0  0  0  0  0  0  0  0  0  0  0  0
    1.3519   -0.6133   27.8433 H   0  0  0  0  0  0  0  0  0  0  0  0
   -0.7955   -1.8546   27.7637 H   0  0  0  0  0  0  0  0  0  0  0  0
   -2.1469   -2.1259   29.7706 H   0  0  0  0  0  0  0  0  0  0  0  0
   -1.2159   -3.2921   36.4490 H   0  0  0  0  0  0  0  0  0  0  0  0
   -0.9656   -5.5456   37.4050 H   0  0  0  0  0  0  0  0  0  0  0  0
    1.7237   -7.0668   33.0438 H   0  0  0  0  0  0  0  0  0  0  0  0
   -1.2953   -4.4259   31.5798 H   0  0  0  0  0  0  0  0  0  0  0  0
   -0.2316   -4.5495   30.2027 H   0  0  0  0  0  0  0  0  0  0  0  0
   -1.7749   -6.5113   32.9878 H   0  0  0  0  0  0  0  0  0  0  0  0
   -2.1577   -8.9006   32.7352 H   0  0  0  0  0  0  0  0  0  0  0  0
    0.1424   -9.0971   29.3247 H   0  0  0  0  0  0  0  0  0  0  0  0
    0.7939   -6.6850   29.5656 H   0  0  0  0  0  0  0  0  0  0  0  0
  1  2  1  0
  2  3  1  0
  3  4  1  0
  4  5  2  0
  5  6  1  0
  6  7  2  0
  7  8  1  0
  8  9  2  0
  2 10  1  0
 10 11  2  0
 10 12  1  0
 12 13  1  0
 13 14  2  0
 14 15  1  0
 15 16  2  0
 16 17  1  0
 17 18  2  0
 18 19  1  0
 19 20  1  0
 20 21  1  0
 21 22  1  0
 22 23  1  0
 23 24  2  0
 24 25  1  0
 25 26  2  0
 26 27  1  0
 27 28  2  0
  9  4  1  0
 20 12  2  0
 28 23  1  0
 19 15  1  0
  1 29  1  0
  1 30  1  0
  1 31  1  0
  3 32  1  0
  3 33  1  0
  5 34  1  0
  6 35  1  0
  7 36  1  0
  8 37  1  0
  9 38  1  0
 13 39  1  0
 14 40  1  0
 18 41  1  0
 22 42  1  0
 22 43  1  0
 24 44  1  0
 25 45  1  0
 27 46  1  0
 28 47  1  0
M  END
>  <Energy>  (57) 
148.38852903686492

>  <compound_id>  (57) 
2373

>  <target_id>  (57) 
1

>  <reference_id>  (57) 
135

>  <inspiration_ids>  (57) 
[135, 162]

>  <energy_score>  (57) 
58.89197968426146

>  <distance_score>  (57) 
2.5947400731420247

>  <path>  (57) 
/opt/xchem-fragalysis-2/maxwin/BulkDock/SCRATCH/505735/C2373-P135/C2373-P135.minimised.mol

>  <scratch_subdir>  (57) 
/opt/xchem-fragalysis-2/maxwin/BulkDock/SCRATCH/505735/C2373-P135

>  <fragmenstein_runtime>  (57) 
7.962952136993408

>  <fragmenstein_outcome>  (57) 
too moved

>  <fragmenstein_mode>  (57) 
expansion

>  <fragmenstein_error>  (57) 


$$$$
C2373-P162
     RDKit          3D

 47 50  0  0  0  0  0  0  0  0999 V2000
    1.2391   -2.8839   31.5008 C   0  0  0  0  0  0  0  0  0  0  0  0
    0.0351   -2.6519   32.3739 N   0  0  0  0  0  0  0  0  0  0  0  0
    0.0325   -1.3309   31.6494 C   0  0  0  0  0  0  0  0  0  0  0  0
   -0.3177   -1.0632   30.2068 C   0  0  0  0  0  0  0  0  0  0  0  0
    0.4857   -0.1639   29.4819 C   0  0  0  0  0  0  0  0  0  0  0  0
    0.1031    0.2666   28.2152 C   0  0  0  0  0  0  0  0  0  0  0  0
   -1.0790   -0.2075   27.6587 C   0  0  0  0  0  0  0  0  0  0  0  0
   -1.8577   -1.1314   28.3454 C   0  0  0  0  0  0  0  0  0  0  0  0
   -1.4930   -1.5398   29.6231 C   0  0  0  0  0  0  0  0  0  0  0  0
   -0.8569   -3.7671   32.2880 C   0  0  0  0  0  0  0  0  0  0  0  0
   -1.7819   -3.9725   31.5523 O   0  0  0  0  0  0  0  0  0  0  0  0
   -0.5378   -4.7220   33.4190 C   0  0  0  0  0  0  0  0  0  0  0  0
   -0.2762   -4.0158   34.6985 C   0  0  0  0  0  0  0  0  0  0  0  0
   -0.1067   -4.6418   35.8633 C   0  0  0  0  0  0  0  0  0  0  0  0
   -0.1996   -6.0360   35.8775 C   0  0  0  0  0  0  0  0  0  0  0  0
   -0.0439   -6.8772   36.8688 N   0  0  0  0  0  0  0  0  0  0  0  0
   -0.2647   -8.1178   36.3717 N   0  0  0  0  0  0  0  0  0  0  0  0
   -0.5493   -7.9949   35.0995 C   0  0  0  0  0  0  0  0  0  0  0  0
   -0.4959   -6.7018   34.6865 N   0  0  0  0  0  0  0  0  0  0  0  0
   -0.6725   -6.0851   33.4192 C   0  0  0  0  0  0  0  0  0  0  0  0
   -0.8516   -7.0203   31.9135 S   0  0  0  0  0  0  0  0  0  0  0  0
   -2.0454   -8.4161   32.0736 C   0  0  0  0  0  0  0  0  0  0  0  0
   -3.3743   -8.3378   31.3052 C   0  0  0  0  0  0  0  0  0  0  0  0
   -4.7913   -8.3844   32.0558 C   0  0  0  0  0  0  0  0  0  0  0  0
   -6.2141   -7.3155   31.6821 C   0  0  0  0  0  0  0  0  0  0  0  0
   -6.3162   -7.0191   29.8311 N   0  0  0  0  0  0  0  0  0  0  0  0
   -5.1445   -7.9126   29.0575 C   0  0  0  0  0  0  0  0  0  0  0  0
   -3.5041   -7.8521   29.7673 C   0  0  0  0  0  0  0  0  0  0  0  0
    0.9982   -3.1145   30.4531 H   0  0  0  0  0  0  0  0  0  0  0  0
    1.6626   -3.8358   31.8584 H   0  0  0  0  0  0  0  0  0  0  0  0
    2.0800   -2.1862   31.6340 H   0  0  0  0  0  0  0  0  0  0  0  0
    0.8616   -0.6919   32.0055 H   0  0  0  0  0  0  0  0  0  0  0  0
   -0.8114   -0.8412   32.1667 H   0  0  0  0  0  0  0  0  0  0  0  0
    1.3954    0.2427   29.9173 H   0  0  0  0  0  0  0  0  0  0  0  0
    0.7158    0.9754   27.6674 H   0  0  0  0  0  0  0  0  0  0  0  0
   -1.4002    0.1160   26.6742 H   0  0  0  0  0  0  0  0  0  0  0  0
   -2.7586   -1.5301   27.8859 H   0  0  0  0  0  0  0  0  0  0  0  0
   -2.1662   -2.2014   30.1562 H   0  0  0  0  0  0  0  0  0  0  0  0
   -0.2701   -2.9285   34.7035 H   0  0  0  0  0  0  0  0  0  0  0  0
    0.0611   -4.1059   36.7905 H   0  0  0  0  0  0  0  0  0  0  0  0
   -0.7938   -8.8001   34.4523 H   0  0  0  0  0  0  0  0  0  0  0  0
   -1.5207   -9.2943   31.6920 H   0  0  0  0  0  0  0  0  0  0  0  0
   -2.2696   -8.6059   33.1196 H   0  0  0  0  0  0  0  0  0  0  0  0
   -4.8337   -8.8248   33.0717 H   0  0  0  0  0  0  0  0  0  0  0  0
   -7.0434   -7.0267   32.3157 H   0  0  0  0  0  0  0  0  0  0  0  0
   -5.2446   -8.1549   28.0130 H   0  0  0  0  0  0  0  0  0  0  0  0
   -2.6190   -7.6571   29.1252 H   0  0  0  0  0  0  0  0  0  0  0  0
  1  2  1  0
  2  3  1  0
  3  4  1  0
  4  5  2  0
  5  6  1  0
  6  7  2  0
  7  8  1  0
  8  9  2  0
  2 10  1  0
 10 11  2  0
 10 12  1  0
 12 13  1  0
 13 14  2  0
 14 15  1  0
 15 16  2  0
 16 17  1  0
 17 18  2  0
 18 19  1  0
 19 20  1  0
 20 21  1  0
 21 22  1  0
 22 23  1  0
 23 24  2  0
 24 25  1  0
 25 26  2  0
 26 27  1  0
 27 28  2  0
  9  4  1  0
 20 12  2  0
 28 23  1  0
 19 15  1  0
  1 29  1  0
  1 30  1  0
  1 31  1  0
  3 32  1  0
  3 33  1  0
  5 34  1  0
  6 35  1  0
  7 36  1  0
  8 37  1  0
  9 38  1  0
 13 39  1  0
 14 40  1  0
 18 41  1  0
 22 42  1  0
 22 43  1  0
 24 44  1  0
 25 45  1  0
 27 46  1  0
 28 47  1  0
M  END
>  <Energy>  (58) 
440.06326939328801

>  <compound_id>  (58) 
2373

>  <target_id>  (58) 
1

>  <reference_id>  (58) 
162

>  <inspiration_ids>  (58) 
[135, 162]

>  <energy_score>  (58) 
348.968263807905

>  <distance_score>  (58) 
1.4042922186919504

>  <path>  (58) 
/opt/xchem-fragalysis-2/maxwin/BulkDock/SCRATCH/505735/C2373-P162/C2373-P162.minimised.mol

>  <scratch_subdir>  (58) 
/opt/xchem-fragalysis-2/maxwin/BulkDock/SCRATCH/505735/C2373-P162

>  <fragmenstein_runtime>  (58) 
7.67023229598999

>  <fragmenstein_outcome>  (58) 
too moved

>  <fragmenstein_mode>  (58) 
expansion

>  <fragmenstein_error>  (58) 


$$$$
C2373-P135
     RDKit          2D

  0  0  0  0  0  0  0  0  0  0999 V2000
M  END
>  <compound_id>  (59) 
2373

>  <target_id>  (59) 
1

>  <reference_id>  (59) 
135

>  <inspiration_ids>  (59) 
[135, 164]

>  <energy_score>  (59) 
nan

>  <distance_score>  (59) 
nan

>  <path>  (59) 
/opt/xchem-fragalysis-2/maxwin/BulkDock/SCRATCH/505735/C2373-P135/C2373-P135.minimised.mol

>  <scratch_subdir>  (59) 
/opt/xchem-fragalysis-2/maxwin/BulkDock/SCRATCH/505735/C2373-P135

>  <fragmenstein_runtime>  (59) 
0.32663679122924805

>  <fragmenstein_outcome>  (59) 
too distant

>  <fragmenstein_mode>  (59) 
expansion

>  <fragmenstein_error>  (59) 
DistanceError: hit1

$$$$
C3913-P135
     RDKit          3D

 50 54  0  0  0  0  0  0  0  0999 V2000
    1.8889   -2.8247   32.6814 C   0  0  0  0  0  0  0  0  0  0  0  0
    0.8131   -3.5571   31.8558 C   0  0  0  0  0  0  0  0  0  0  0  0
    1.4069   -3.9218   30.4479 C   0  0  0  0  0  0  0  0  0  0  0  0
    2.1958   -2.8964   29.8604 O   0  0  0  0  0  0  0  0  0  0  0  0
   -0.4490   -2.6218   31.7315 C   0  0  0  0  0  0  0  0  0  0  0  0
   -0.4226   -1.5773   30.6423 C   0  0  0  0  0  0  0  0  0  0  0  0
    0.3276   -0.4012   30.7675 C   0  0  0  0  0  0  0  0  0  0  0  0
    0.4298    0.4875   29.6959 C   0  0  0  0  0  0  0  0  0  0  0  0
   -0.2472    0.2301   28.5068 C   0  0  0  0  0  0  0  0  0  0  0  0
   -1.0334   -0.9105   28.3894 C   0  0  0  0  0  0  0  0  0  0  0  0
   -1.1157   -1.8135   29.4456 C   0  0  0  0  0  0  0  0  0  0  0  0
    0.4957   -4.8659   32.6328 C   0  0  0  0  0  0  0  0  0  0  0  0
   -0.7612   -5.0027   33.3830 C   0  0  0  0  0  0  0  0  0  0  0  0
   -1.4556   -6.1541   33.2288 C   0  0  0  0  0  0  0  0  0  0  0  0
   -1.1702   -7.0182   32.1530 C   0  0  0  0  0  0  0  0  0  0  0  0
   -1.8385   -7.9161   31.4761 N   0  0  0  0  0  0  0  0  0  0  0  0
   -1.0264   -8.3271   30.4607 N   0  0  0  0  0  0  0  0  0  0  0  0
    0.1157   -7.6877   30.5741 C   0  0  0  0  0  0  0  0  0  0  0  0
    0.1166   -6.9257   31.6952 N   0  0  0  0  0  0  0  0  0  0  0  0
    1.0591   -6.0921   32.3640 C   0  0  0  0  0  0  0  0  0  0  0  0
    1.3588   -7.0631   33.9613 S   0  0  0  0  0  0  0  0  0  0  0  0
    2.5339   -6.1336   34.8031 C   0  0  0  0  0  0  0  0  0  0  0  0
    3.7301   -6.6115   34.7363 N   0  0  0  0  0  0  0  0  0  0  0  0
    4.7603   -5.8984   35.3060 C   0  0  0  0  0  0  0  0  0  0  0  0
    5.8877   -6.3604   35.4225 O   0  0  0  0  0  0  0  0  0  0  0  0
    4.3695   -4.5621   35.6700 C   0  0  0  0  0  0  0  0  0  0  0  0
    5.4683   -3.3152   35.9629 S   0  0  0  0  0  0  0  0  0  0  0  0
    4.1879   -2.1941   36.1886 C   0  0  0  0  0  0  0  0  0  0  0  0
    2.9425   -2.7785   36.0721 C   0  0  0  0  0  0  0  0  0  0  0  0
    3.0682   -4.1400   35.7396 C   0  0  0  0  0  0  0  0  0  0  0  0
    2.0891   -5.0034   35.4337 N   0  0  0  0  0  0  0  0  0  0  0  0
    2.2500   -1.9172   32.1905 H   0  0  0  0  0  0  0  0  0  0  0  0
    1.4936   -2.5263   33.6571 H   0  0  0  0  0  0  0  0  0  0  0  0
    2.7667   -3.4611   32.8418 H   0  0  0  0  0  0  0  0  0  0  0  0
    2.0963   -4.7686   30.5241 H   0  0  0  0  0  0  0  0  0  0  0  0
    0.6207   -4.2259   29.7468 H   0  0  0  0  0  0  0  0  0  0  0  0
    1.6026   -2.2982   29.3662 H   0  0  0  0  0  0  0  0  0  0  0  0
   -0.6486   -2.1200   32.6885 H   0  0  0  0  0  0  0  0  0  0  0  0
   -1.3372   -3.2421   31.5469 H   0  0  0  0  0  0  0  0  0  0  0  0
    0.8607   -0.1749   31.6869 H   0  0  0  0  0  0  0  0  0  0  0  0
    1.0311    1.3883   29.7899 H   0  0  0  0  0  0  0  0  0  0  0  0
   -0.1797    0.9267   27.6753 H   0  0  0  0  0  0  0  0  0  0  0  0
   -1.5802   -1.1025   27.4680 H   0  0  0  0  0  0  0  0  0  0  0  0
   -1.7147   -2.7113   29.3037 H   0  0  0  0  0  0  0  0  0  0  0  0
   -0.9705   -4.3136   34.1957 H   0  0  0  0  0  0  0  0  0  0  0  0
   -2.1529   -6.5118   33.9608 H   0  0  0  0  0  0  0  0  0  0  0  0
    0.9336   -7.7712   29.8814 H   0  0  0  0  0  0  0  0  0  0  0  0
    4.4164   -1.1608   36.4148 H   0  0  0  0  0  0  0  0  0  0  0  0
    2.0172   -2.2284   36.1870 H   0  0  0  0  0  0  0  0  0  0  0  0
    1.1126   -4.7544   35.3573 H   0  0  0  0  0  0  0  0  0  0  0  0
  1  2  1  0
  2  3  1  0
  3  4  1  0
  2  5  1  0
  5  6  1  0
  6  7  2  0
  7  8  1  0
  8  9  2  0
  9 10  1  0
 10 11  2  0
  2 12  1  0
 12 13  1  0
 13 14  2  0
 14 15  1  0
 15 16  2  0
 16 17  1  0
 17 18  2  0
 18 19  1  0
 19 20  1  0
 20 21  1  0
 21 22  1  0
 22 23  2  0
 23 24  1  0
 24 25  2  0
 24 26  1  0
 26 27  1  0
 27 28  1  0
 28 29  2  0
 29 30  1  0
 30 31  1  0
 11  6  1  0
 20 12  2  0
 31 22  1  0
 19 15  1  0
 30 26  2  0
  1 32  1  0
  1 33  1  0
  1 34  1  0
  3 35  1  0
  3 36  1  0
  4 37  1  0
  5 38  1  0
  5 39  1  0
  7 40  1  0
  8 41  1  0
  9 42  1  0
 10 43  1  0
 11 44  1  0
 13 45  1  0
 14 46  1  0
 18 47  1  0
 28 48  1  0
 29 49  1  0
 31 50  1  0
M  END
>  <Energy>  (60) 
129.28523692821747

>  <compound_id>  (60) 
3913

>  <target_id>  (60) 
1

>  <reference_id>  (60) 
135

>  <inspiration_ids>  (60) 
[135, 165]

>  <energy_score>  (60) 
9.769114352017823

>  <distance_score>  (60) 
1.5794618285981439

>  <path>  (60) 
/opt/xchem-fragalysis-2/maxwin/BulkDock/SCRATCH/505735/C3913-P135/C3913-P135.minimised.mol

>  <scratch_subdir>  (60) 
/opt/xchem-fragalysis-2/maxwin/BulkDock/SCRATCH/505735/C3913-P135

>  <fragmenstein_runtime>  (60) 
5.89827823638916

>  <fragmenstein_outcome>  (60) 
too moved

>  <fragmenstein_mode>  (60) 
expansion

>  <fragmenstein_error>  (60) 


$$$$
C3913-P165
     RDKit          3D

 50 54  0  0  0  0  0  0  0  0999 V2000
    0.2162   -2.5536   34.4485 C   0  0  0  0  0  0  0  0  0  0  0  0
    0.3744   -2.8195   32.9446 C   0  0  0  0  0  0  0  0  0  0  0  0
    1.8834   -2.5276   32.6358 C   0  0  0  0  0  0  0  0  0  0  0  0
    2.3376   -1.3129   33.2298 O   0  0  0  0  0  0  0  0  0  0  0  0
   -0.6165   -1.7648   32.3080 C   0  0  0  0  0  0  0  0  0  0  0  0
   -0.3883   -1.2544   30.9063 C   0  0  0  0  0  0  0  0  0  0  0  0
    0.5604   -0.2518   30.6569 C   0  0  0  0  0  0  0  0  0  0  0  0
    0.7515    0.2429   29.3678 C   0  0  0  0  0  0  0  0  0  0  0  0
   -0.0219   -0.2435   28.3195 C   0  0  0  0  0  0  0  0  0  0  0  0
   -0.9784   -1.2263   28.5550 C   0  0  0  0  0  0  0  0  0  0  0  0
   -1.1607   -1.7293   29.8407 C   0  0  0  0  0  0  0  0  0  0  0  0
    0.0259   -4.2894   32.4890 C   0  0  0  0  0  0  0  0  0  0  0  0
    0.2621   -4.4540   31.0466 C   0  0  0  0  0  0  0  0  0  0  0  0
    0.0364   -5.5838   30.3738 C   0  0  0  0  0  0  0  0  0  0  0  0
   -0.5083   -6.6974   31.0256 C   0  0  0  0  0  0  0  0  0  0  0  0
   -0.9636   -7.8457   30.5828 N   0  0  0  0  0  0  0  0  0  0  0  0
   -1.4282   -8.5441   31.6620 N   0  0  0  0  0  0  0  0  0  0  0  0
   -1.2220   -7.8106   32.7331 C   0  0  0  0  0  0  0  0  0  0  0  0
   -0.6876   -6.5917   32.3888 N   0  0  0  0  0  0  0  0  0  0  0  0
   -0.3997   -5.4210   33.1411 C   0  0  0  0  0  0  0  0  0  0  0  0
   -0.6407   -5.5954   34.8562 S   0  0  0  0  0  0  0  0  0  0  0  0
    0.9862   -6.0033   35.3360 C   0  0  0  0  0  0  0  0  0  0  0  0
    1.5758   -6.9998   34.7536 N   0  0  0  0  0  0  0  0  0  0  0  0
    2.9279   -7.1565   35.0030 C   0  0  0  0  0  0  0  0  0  0  0  0
    3.4953   -8.2271   34.8170 O   0  0  0  0  0  0  0  0  0  0  0  0
    3.5570   -5.9165   35.3867 C   0  0  0  0  0  0  0  0  0  0  0  0
    5.1636   -5.4898   35.0846 S   0  0  0  0  0  0  0  0  0  0  0  0
    4.8948   -3.9030   35.6977 C   0  0  0  0  0  0  0  0  0  0  0  0
    3.6069   -3.7320   36.1698 C   0  0  0  0  0  0  0  0  0  0  0  0
    2.8500   -4.9055   35.9783 C   0  0  0  0  0  0  0  0  0  0  0  0
    1.5382   -5.1034   36.2164 N   0  0  0  0  0  0  0  0  0  0  0  0
    0.3457   -1.4925   34.6999 H   0  0  0  0  0  0  0  0  0  0  0  0
   -0.7802   -2.8175   34.8152 H   0  0  0  0  0  0  0  0  0  0  0  0
    0.9784   -3.0636   35.0215 H   0  0  0  0  0  0  0  0  0  0  0  0
    2.5076   -3.3341   33.0396 H   0  0  0  0  0  0  0  0  0  0  0  0
    2.0930   -2.4657   31.5648 H   0  0  0  0  0  0  0  0  0  0  0  0
    3.2462   -1.1659   32.9114 H   0  0  0  0  0  0  0  0  0  0  0  0
   -0.6548   -0.8600   32.9326 H   0  0  0  0  0  0  0  0  0  0  0  0
   -1.6384   -2.1680   32.3737 H   0  0  0  0  0  0  0  0  0  0  0  0
    1.1462    0.1666   31.4721 H   0  0  0  0  0  0  0  0  0  0  0  0
    1.4847    1.0232   29.1841 H   0  0  0  0  0  0  0  0  0  0  0  0
    0.1022    0.1536   27.3177 H   0  0  0  0  0  0  0  0  0  0  0  0
   -1.5927   -1.5949   27.7351 H   0  0  0  0  0  0  0  0  0  0  0  0
   -1.9151   -2.4952   29.9953 H   0  0  0  0  0  0  0  0  0  0  0  0
    0.6883   -3.6394   30.4686 H   0  0  0  0  0  0  0  0  0  0  0  0
    0.2677   -5.6207   29.3259 H   0  0  0  0  0  0  0  0  0  0  0  0
   -1.4613   -8.1064   33.7446 H   0  0  0  0  0  0  0  0  0  0  0  0
    5.7028   -3.1831   35.6991 H   0  0  0  0  0  0  0  0  0  0  0  0
    3.2484   -2.8026   36.5954 H   0  0  0  0  0  0  0  0  0  0  0  0
    0.9256   -4.3637   36.5437 H   0  0  0  0  0  0  0  0  0  0  0  0
  1  2  1  0
  2  3  1  0
  3  4  1  0
  2  5  1  0
  5  6  1  0
  6  7  2  0
  7  8  1  0
  8  9  2  0
  9 10  1  0
 10 11  2  0
  2 12  1  0
 12 13  1  0
 13 14  2  0
 14 15  1  0
 15 16  2  0
 16 17  1  0
 17 18  2  0
 18 19  1  0
 19 20  1  0
 20 21  1  0
 21 22  1  0
 22 23  2  0
 23 24  1  0
 24 25  2  0
 24 26  1  0
 26 27  1  0
 27 28  1  0
 28 29  2  0
 29 30  1  0
 30 31  1  0
 11  6  1  0
 20 12  2  0
 31 22  1  0
 19 15  1  0
 30 26  2  0
  1 32  1  0
  1 33  1  0
  1 34  1  0
  3 35  1  0
  3 36  1  0
  4 37  1  0
  5 38  1  0
  5 39  1  0
  7 40  1  0
  8 41  1  0
  9 42  1  0
 10 43  1  0
 11 44  1  0
 13 45  1  0
 14 46  1  0
 18 47  1  0
 28 48  1  0
 29 49  1  0
 31 50  1  0
M  END
>  <Energy>  (61) 
52.733143333112828

>  <compound_id>  (61) 
3913

>  <target_id>  (61) 
1

>  <reference_id>  (61) 
165

>  <inspiration_ids>  (61) 
[135, 165]

>  <energy_score>  (61) 
-66.78297924308794

>  <distance_score>  (61) 
1.1640084752884314

>  <path>  (61) 
/opt/xchem-fragalysis-2/maxwin/BulkDock/SCRATCH/505735/C3913-P165/C3913-P165.minimised.mol

>  <scratch_subdir>  (61) 
/opt/xchem-fragalysis-2/maxwin/BulkDock/SCRATCH/505735/C3913-P165

>  <fragmenstein_runtime>  (61) 
6.073810815811157

>  <fragmenstein_outcome>  (61) 
too moved

>  <fragmenstein_mode>  (61) 
expansion

>  <fragmenstein_error>  (61) 


$$$$
C2442-P135
     RDKit          3D

 47 51  0  0  0  0  0  0  0  0999 V2000
    2.4763   -2.5407   33.4513 C   0  0  0  0  0  0  0  0  0  0  0  0
    1.4569   -2.5818   32.3296 N   0  0  0  0  0  0  0  0  0  0  0  0
    1.8354   -1.1322   32.2282 C   0  0  0  0  0  0  0  0  0  0  0  0
    0.9822   -0.6023   31.0665 C   0  0  0  0  0  0  0  0  0  0  0  0
    1.5024   -0.5899   29.7620 C   0  0  0  0  0  0  0  0  0  0  0  0
    0.6969   -0.2403   28.6790 C   0  0  0  0  0  0  0  0  0  0  0  0
   -0.6383    0.0923   28.8840 C   0  0  0  0  0  0  0  0  0  0  0  0
   -1.1675    0.0771   30.1731 C   0  0  0  0  0  0  0  0  0  0  0  0
   -0.3648   -0.2665   31.2621 C   0  0  0  0  0  0  0  0  0  0  0  0
    1.7220   -3.6636   31.4720 C   0  0  0  0  0  0  0  0  0  0  0  0
    2.3997   -3.7262   30.4774 O   0  0  0  0  0  0  0  0  0  0  0  0
    0.9209   -4.9460   31.8182 C   0  0  0  0  0  0  0  0  0  0  0  0
    0.8618   -5.8706   30.6488 C   0  0  0  0  0  0  0  0  0  0  0  0
    0.1450   -6.9998   30.6186 C   0  0  0  0  0  0  0  0  0  0  0  0
   -0.6201   -7.3470   31.7338 C   0  0  0  0  0  0  0  0  0  0  0  0
   -1.4463   -8.3419   31.9346 N   0  0  0  0  0  0  0  0  0  0  0  0
   -1.8918   -8.2375   33.2199 N   0  0  0  0  0  0  0  0  0  0  0  0
   -1.3306   -7.1847   33.7619 C   0  0  0  0  0  0  0  0  0  0  0  0
   -0.5366   -6.5362   32.8494 N   0  0  0  0  0  0  0  0  0  0  0  0
    0.2090   -5.3302   32.9203 C   0  0  0  0  0  0  0  0  0  0  0  0
    0.1137   -4.4837   34.4543 S   0  0  0  0  0  0  0  0  0  0  0  0
    0.9552   -5.6381   35.5008 C   0  0  0  0  0  0  0  0  0  0  0  0
    1.7979   -6.4398   34.9338 N   0  0  0  0  0  0  0  0  0  0  0  0
    2.4403   -7.3958   35.6945 C   0  0  0  0  0  0  0  0  0  0  0  0
    3.1260   -8.2566   35.1537 O   0  0  0  0  0  0  0  0  0  0  0  0
    2.1780   -7.2907   37.1116 C   0  0  0  0  0  0  0  0  0  0  0  0
    2.9475   -8.2159   38.3062 S   0  0  0  0  0  0  0  0  0  0  0  0
    1.9809   -7.5103   39.5400 C   0  0  0  0  0  0  0  0  0  0  0  0
    1.1257   -6.5437   39.0455 C   0  0  0  0  0  0  0  0  0  0  0  0
    1.2629   -6.4195   37.6439 C   0  0  0  0  0  0  0  0  0  0  0  0
    0.6049   -5.5782   36.8247 N   0  0  0  0  0  0  0  0  0  0  0  0
    2.1328   -1.9846   34.3357 H   0  0  0  0  0  0  0  0  0  0  0  0
    2.6167   -3.5719   33.8002 H   0  0  0  0  0  0  0  0  0  0  0  0
    3.5048   -2.2907   33.1423 H   0  0  0  0  0  0  0  0  0  0  0  0
    1.5507   -0.5250   33.1020 H   0  0  0  0  0  0  0  0  0  0  0  0
    2.8748   -0.9473   31.9127 H   0  0  0  0  0  0  0  0  0  0  0  0
    2.5298   -0.8953   29.5743 H   0  0  0  0  0  0  0  0  0  0  0  0
    1.1041   -0.2523   27.6720 H   0  0  0  0  0  0  0  0  0  0  0  0
   -1.2707    0.3428   28.0354 H   0  0  0  0  0  0  0  0  0  0  0  0
   -2.2159    0.3131   30.3215 H   0  0  0  0  0  0  0  0  0  0  0  0
   -0.8020   -0.3124   32.2555 H   0  0  0  0  0  0  0  0  0  0  0  0
    1.4429   -5.6142   29.7649 H   0  0  0  0  0  0  0  0  0  0  0  0
    0.1492   -7.6779   29.7789 H   0  0  0  0  0  0  0  0  0  0  0  0
   -1.4938   -6.8525   34.7749 H   0  0  0  0  0  0  0  0  0  0  0  0
    2.0943   -7.8390   40.5649 H   0  0  0  0  0  0  0  0  0  0  0  0
    0.4476   -5.9785   39.6727 H   0  0  0  0  0  0  0  0  0  0  0  0
   -0.0717   -4.8870   37.1291 H   0  0  0  0  0  0  0  0  0  0  0  0
  1  2  1  0
  2  3  1  0
  3  4  1  0
  4  5  2  0
  5  6  1  0
  6  7  2  0
  7  8  1  0
  8  9  2  0
  2 10  1  0
 10 11  2  0
 10 12  1  0
 12 13  1  0
 13 14  2  0
 14 15  1  0
 15 16  2  0
 16 17  1  0
 17 18  2  0
 18 19  1  0
 19 20  1  0
 20 21  1  0
 21 22  1  0
 22 23  2  0
 23 24  1  0
 24 25  2  0
 24 26  1  0
 26 27  1  0
 27 28  1  0
 28 29  2  0
 29 30  1  0
 30 31  1  0
  9  4  1  0
 20 12  2  0
 31 22  1  0
 19 15  1  0
 30 26  2  0
  1 32  1  0
  1 33  1  0
  1 34  1  0
  3 35  1  0
  3 36  1  0
  5 37  1  0
  6 38  1  0
  7 39  1  0
  8 40  1  0
  9 41  1  0
 13 42  1  0
 14 43  1  0
 18 44  1  0
 28 45  1  0
 29 46  1  0
 31 47  1  0
M  END
>  <Energy>  (62) 
67.209434575173461

>  <compound_id>  (62) 
2442

>  <target_id>  (62) 
1

>  <reference_id>  (62) 
135

>  <inspiration_ids>  (62) 
[135, 166]

>  <energy_score>  (62) 
15.82833559579231

>  <distance_score>  (62) 
1.5572039449462822

>  <path>  (62) 
/opt/xchem-fragalysis-2/maxwin/BulkDock/SCRATCH/505735/C2442-P135/C2442-P135.minimised.mol

>  <scratch_subdir>  (62) 
/opt/xchem-fragalysis-2/maxwin/BulkDock/SCRATCH/505735/C2442-P135

>  <fragmenstein_runtime>  (62) 
3.3476269245147705

>  <fragmenstein_outcome>  (62) 
too moved

>  <fragmenstein_mode>  (62) 
expansion

>  <fragmenstein_error>  (62) 


$$$$
C2442-P166
     RDKit          3D

 47 51  0  0  0  0  0  0  0  0999 V2000
    1.9649   -2.7160   30.9318 C   0  0  0  0  0  0  0  0  0  0  0  0
    1.0577   -2.7232   32.1369 N   0  0  0  0  0  0  0  0  0  0  0  0
    1.4132   -1.2358   32.1397 C   0  0  0  0  0  0  0  0  0  0  0  0
    0.9610   -0.3002   31.0147 C   0  0  0  0  0  0  0  0  0  0  0  0
   -0.3874   -0.1676   30.6605 C   0  0  0  0  0  0  0  0  0  0  0  0
   -0.7623    0.5798   29.5432 C   0  0  0  0  0  0  0  0  0  0  0  0
    0.1984    1.2539   28.7973 C   0  0  0  0  0  0  0  0  0  0  0  0
    1.5364    1.1834   29.1712 C   0  0  0  0  0  0  0  0  0  0  0  0
    1.9168    0.4129   30.2724 C   0  0  0  0  0  0  0  0  0  0  0  0
   -0.1574   -3.3825   31.8297 C   0  0  0  0  0  0  0  0  0  0  0  0
   -1.1979   -2.9515   31.4050 O   0  0  0  0  0  0  0  0  0  0  0  0
   -0.0833   -4.8636   31.9695 C   0  0  0  0  0  0  0  0  0  0  0  0
    0.0249   -5.6181   30.7169 C   0  0  0  0  0  0  0  0  0  0  0  0
   -0.3620   -6.8976   30.6368 C   0  0  0  0  0  0  0  0  0  0  0  0
   -0.9430   -7.5017   31.7632 C   0  0  0  0  0  0  0  0  0  0  0  0
   -1.6132   -8.6182   31.8807 N   0  0  0  0  0  0  0  0  0  0  0  0
   -2.0338   -8.6920   33.1766 N   0  0  0  0  0  0  0  0  0  0  0  0
   -1.5542   -7.6639   33.8320 C   0  0  0  0  0  0  0  0  0  0  0  0
   -0.9151   -6.8168   32.9691 N   0  0  0  0  0  0  0  0  0  0  0  0
   -0.4458   -5.4957   33.1108 C   0  0  0  0  0  0  0  0  0  0  0  0
   -0.4761   -4.7313   34.6810 S   0  0  0  0  0  0  0  0  0  0  0  0
    0.4837   -5.8697   35.6415 C   0  0  0  0  0  0  0  0  0  0  0  0
    1.3064   -6.6474   35.0121 N   0  0  0  0  0  0  0  0  0  0  0  0
    2.0199   -7.5954   35.7231 C   0  0  0  0  0  0  0  0  0  0  0  0
    2.7282   -8.4075   35.1361 O   0  0  0  0  0  0  0  0  0  0  0  0
    1.8280   -7.5272   37.1528 C   0  0  0  0  0  0  0  0  0  0  0  0
    2.6638   -8.4763   38.2826 S   0  0  0  0  0  0  0  0  0  0  0  0
    1.7840   -7.7799   39.5857 C   0  0  0  0  0  0  0  0  0  0  0  0
    0.8938   -6.8132   39.1581 C   0  0  0  0  0  0  0  0  0  0  0  0
    0.9406   -6.6722   37.7523 C   0  0  0  0  0  0  0  0  0  0  0  0
    0.2279   -5.8250   36.9881 N   0  0  0  0  0  0  0  0  0  0  0  0
    2.9793   -2.3055   31.0562 H   0  0  0  0  0  0  0  0  0  0  0  0
    2.1934   -3.7789   30.7609 H   0  0  0  0  0  0  0  0  0  0  0  0
    1.4612   -2.4337   29.9969 H   0  0  0  0  0  0  0  0  0  0  0  0
    0.8370   -0.8768   33.0078 H   0  0  0  0  0  0  0  0  0  0  0  0
    2.4498   -1.0581   32.4733 H   0  0  0  0  0  0  0  0  0  0  0  0
   -1.1660   -0.6641   31.2320 H   0  0  0  0  0  0  0  0  0  0  0  0
   -1.8094    0.6402   29.2561 H   0  0  0  0  0  0  0  0  0  0  0  0
   -0.1006    1.8426   27.9335 H   0  0  0  0  0  0  0  0  0  0  0  0
    2.2860    1.7207   28.5956 H   0  0  0  0  0  0  0  0  0  0  0  0
    2.9724    0.3560   30.5288 H   0  0  0  0  0  0  0  0  0  0  0  0
    0.3913   -5.0991   29.8355 H   0  0  0  0  0  0  0  0  0  0  0  0
   -0.3186   -7.4782   29.7307 H   0  0  0  0  0  0  0  0  0  0  0  0
   -1.6929   -7.4840   34.8861 H   0  0  0  0  0  0  0  0  0  0  0  0
    1.9678   -8.1139   40.5979 H   0  0  0  0  0  0  0  0  0  0  0  0
    0.2549   -6.2560   39.8319 H   0  0  0  0  0  0  0  0  0  0  0  0
   -0.4394   -5.1487   37.3410 H   0  0  0  0  0  0  0  0  0  0  0  0
  1  2  1  0
  2  3  1  0
  3  4  1  0
  4  5  2  0
  5  6  1  0
  6  7  2  0
  7  8  1  0
  8  9  2  0
  2 10  1  0
 10 11  2  0
 10 12  1  0
 12 13  1  0
 13 14  2  0
 14 15  1  0
 15 16  2  0
 16 17  1  0
 17 18  2  0
 18 19  1  0
 19 20  1  0
 20 21  1  0
 21 22  1  0
 22 23  2  0
 23 24  1  0
 24 25  2  0
 24 26  1  0
 26 27  1  0
 27 28  1  0
 28 29  2  0
 29 30  1  0
 30 31  1  0
  9  4  1  0
 20 12  2  0
 31 22  1  0
 19 15  1  0
 30 26  2  0
  1 32  1  0
  1 33  1  0
  1 34  1  0
  3 35  1  0
  3 36  1  0
  5 37  1  0
  6 38  1  0
  7 39  1  0
  8 40  1  0
  9 41  1  0
 13 42  1  0
 14 43  1  0
 18 44  1  0
 28 45  1  0
 29 46  1  0
 31 47  1  0
M  END
>  <Energy>  (63) 
73.423238037766424

>  <compound_id>  (63) 
2442

>  <target_id>  (63) 
1

>  <reference_id>  (63) 
166

>  <inspiration_ids>  (63) 
[135, 166]

>  <energy_score>  (63) 
22.04213905838644

>  <distance_score>  (63) 
1.1841599192863879

>  <path>  (63) 
/opt/xchem-fragalysis-2/maxwin/BulkDock/SCRATCH/505735/C2442-P166/C2442-P166.minimised.mol

>  <scratch_subdir>  (63) 
/opt/xchem-fragalysis-2/maxwin/BulkDock/SCRATCH/505735/C2442-P166

>  <fragmenstein_runtime>  (63) 
3.9794507026672363

>  <fragmenstein_outcome>  (63) 
too moved

>  <fragmenstein_mode>  (63) 
expansion

>  <fragmenstein_error>  (63) 


$$$$
C3881-P135
     RDKit          3D

 67 71  0  0  0  0  0  0  0  0999 V2000
    1.9597   -2.5891   30.5287 C   0  0  0  0  0  0  0  0  0  0  0  0
    0.9785   -2.8785   31.6361 N   0  0  0  0  0  0  0  0  0  0  0  0
    0.6977   -1.3871   31.4821 C   0  0  0  0  0  0  0  0  0  0  0  0
    0.1966   -0.6954   30.2230 C   0  0  0  0  0  0  0  0  0  0  0  0
    0.8229    0.4947   29.8111 C   0  0  0  0  0  0  0  0  0  0  0  0
    0.3960    1.1653   28.6659 C   0  0  0  0  0  0  0  0  0  0  0  0
   -0.6575    0.6528   27.9169 C   0  0  0  0  0  0  0  0  0  0  0  0
   -1.2840   -0.5248   28.3121 C   0  0  0  0  0  0  0  0  0  0  0  0
   -0.8803   -1.1806   29.4732 C   0  0  0  0  0  0  0  0  0  0  0  0
    0.1794   -4.0197   31.3010 C   0  0  0  0  0  0  0  0  0  0  0  0
   -0.8763   -4.0947   30.7309 O   0  0  0  0  0  0  0  0  0  0  0  0
    0.8928   -5.2723   31.7822 C   0  0  0  0  0  0  0  0  0  0  0  0
   -0.0384   -6.2829   32.2090 N   0  0  0  0  0  0  0  0  0  0  0  0
   -0.4078   -7.3884   31.5119 C   0  0  0  0  0  0  0  0  0  0  0  0
   -1.2599   -8.0850   32.2225 N   0  0  0  0  0  0  0  0  0  0  0  0
   -1.4514   -7.4109   33.4102 N   0  0  0  0  0  0  0  0  0  0  0  0
   -0.7248   -6.3165   33.3877 C   0  0  0  0  0  0  0  0  0  0  0  0
   -0.6945   -5.2761   34.2684 N   0  0  0  0  0  0  0  0  0  0  0  0
   -0.4977   -5.6732   35.6561 C   0  0  0  0  0  0  0  0  0  0  0  0
   -1.0695   -4.3513   36.7621 S   0  0  0  0  0  0  0  0  0  0  0  0
    0.1130   -3.0107   36.4557 C   0  0  0  0  0  0  0  0  0  0  0  0
   -0.2350   -2.1114   34.9650 Cl  0  0  0  0  0  0  0  0  0  0  0  0
    1.5812   -3.4824   36.5536 C   0  0  0  0  0  0  0  0  0  0  0  0
    2.0162   -3.7099   37.6496 O   0  0  0  0  0  0  0  0  0  0  0  0
    2.1740   -3.6605   35.2528 N   0  0  0  0  0  0  0  0  0  0  0  0
    3.4410   -4.2584   34.8555 C   0  0  0  0  0  0  0  0  0  0  0  0
    3.3901   -5.7563   35.2912 C   0  0  0  0  0  0  0  0  0  0  0  0
    2.9589   -6.7684   34.5681 N   0  0  0  0  0  0  0  0  0  0  0  0
    2.7635   -7.8363   35.4264 N   0  0  0  0  0  0  0  0  0  0  0  0
    3.0610   -7.4284   36.6447 C   0  0  0  0  0  0  0  0  0  0  0  0
    2.8226   -8.0805   37.8849 C   0  0  0  0  0  0  0  0  0  0  0  0
    1.6208   -8.1550   38.5561 C   0  0  0  0  0  0  0  0  0  0  0  0
    1.7533   -8.8048   39.8178 C   0  0  0  0  0  0  0  0  0  0  0  0
    3.0465   -9.2141   40.0553 C   0  0  0  0  0  0  0  0  0  0  0  0
    4.0971   -8.7919   38.7729 S   0  0  0  0  0  0  0  0  0  0  0  0
    3.5298   -6.1514   36.5911 N   0  0  0  0  0  0  0  0  0  0  0  0
    3.9282   -3.9673   33.4211 C   0  0  0  0  0  0  0  0  0  0  0  0
    5.3481   -3.7896   33.9916 C   0  0  0  0  0  0  0  0  0  0  0  0
    4.6908   -3.4756   35.3482 C   0  0  0  0  0  0  0  0  0  0  0  0
    2.5833   -3.4962   30.4839 H   0  0  0  0  0  0  0  0  0  0  0  0
    1.5160   -2.5770   29.5241 H   0  0  0  0  0  0  0  0  0  0  0  0
    2.7119   -1.8076   30.7191 H   0  0  0  0  0  0  0  0  0  0  0  0
   -0.1532   -1.2569   32.1675 H   0  0  0  0  0  0  0  0  0  0  0  0
    1.4929   -0.8143   31.9901 H   0  0  0  0  0  0  0  0  0  0  0  0
    1.6494    0.9133   30.3808 H   0  0  0  0  0  0  0  0  0  0  0  0
    0.8814    2.0865   28.3556 H   0  0  0  0  0  0  0  0  0  0  0  0
   -1.0002    1.1679   27.0244 H   0  0  0  0  0  0  0  0  0  0  0  0
   -2.0907   -0.9396   27.7107 H   0  0  0  0  0  0  0  0  0  0  0  0
   -1.4181   -2.0774   29.7621 H   0  0  0  0  0  0  0  0  0  0  0  0
    1.5444   -5.0572   32.6294 H   0  0  0  0  0  0  0  0  0  0  0  0
    1.4990   -5.6749   30.9645 H   0  0  0  0  0  0  0  0  0  0  0  0
   -0.0422   -7.6409   30.5278 H   0  0  0  0  0  0  0  0  0  0  0  0
   -1.6439   -4.8629   34.2921 H   0  0  0  0  0  0  0  0  0  0  0  0
    0.5436   -5.9217   35.8591 H   0  0  0  0  0  0  0  0  0  0  0  0
   -1.0969   -6.5572   35.9028 H   0  0  0  0  0  0  0  0  0  0  0  0
   -0.0252   -2.2777   37.2574 H   0  0  0  0  0  0  0  0  0  0  0  0
    1.4785   -3.4377   34.5374 H   0  0  0  0  0  0  0  0  0  0  0  0
    0.6836   -7.7782   38.1655 H   0  0  0  0  0  0  0  0  0  0  0  0
    0.9319   -9.0025   40.4966 H   0  0  0  0  0  0  0  0  0  0  0  0
    3.4187   -9.7512   40.9170 H   0  0  0  0  0  0  0  0  0  0  0  0
    3.6969   -5.5496   37.3867 H   0  0  0  0  0  0  0  0  0  0  0  0
    3.5255   -3.0438   32.9904 H   0  0  0  0  0  0  0  0  0  0  0  0
    3.8325   -4.7684   32.6850 H   0  0  0  0  0  0  0  0  0  0  0  0
    5.9395   -2.9829   33.5515 H   0  0  0  0  0  0  0  0  0  0  0  0
    5.9438   -4.7097   33.9902 H   0  0  0  0  0  0  0  0  0  0  0  0
    5.2201   -3.8686   36.2209 H   0  0  0  0  0  0  0  0  0  0  0  0
    4.5178   -2.4036   35.5077 H   0  0  0  0  0  0  0  0  0  0  0  0
  1  2  1  0
  2  3  1  0
  3  4  1  0
  4  5  2  0
  5  6  1  0
  6  7  2  0
  7  8  1  0
  8  9  2  0
  2 10  1  0
 10 11  2  0
 10 12  1  0
 12 13  1  0
 13 14  1  0
 14 15  2  0
 15 16  1  0
 16 17  2  0
 17 18  1  0
 18 19  1  0
 19 20  1  0
 20 21  1  0
 21 22  1  0
 21 23  1  0
 23 24  2  0
 23 25  1  0
 25 26  1  0
 26 27  1  0
 27 28  2  0
 28 29  1  0
 29 30  2  0
 30 31  1  0
 31 32  2  0
 32 33  1  0
 33 34  2  0
 34 35  1  0
 30 36  1  0
 26 37  1  0
 37 38  1  0
 38 39  1  0
  9  4  1  0
 17 13  1  0
 39 26  1  0
 36 27  1  0
 35 31  1  0
  1 40  1  0
  1 41  1  0
  1 42  1  0
  3 43  1  0
  3 44  1  0
  5 45  1  0
  6 46  1  0
  7 47  1  0
  8 48  1  0
  9 49  1  0
 12 50  1  0
 12 51  1  0
 14 52  1  0
 18 53  1  0
 19 54  1  0
 19 55  1  0
 21 56  1  0
 25 57  1  0
 32 58  1  0
 33 59  1  0
 34 60  1  0
 36 61  1  0
 37 62  1  0
 37 63  1  0
 38 64  1  0
 38 65  1  0
 39 66  1  0
 39 67  1  0
M  END
>  <Energy>  (64) 
80.728800764789398

>  <compound_id>  (64) 
3881

>  <target_id>  (64) 
1

>  <reference_id>  (64) 
135

>  <inspiration_ids>  (64) 
[135, 167]

>  <energy_score>  (64) 
5.389795608587278

>  <distance_score>  (64) 
1.9492323357889372

>  <path>  (64) 
/opt/xchem-fragalysis-2/maxwin/BulkDock/SCRATCH/505735/C3881-P135/C3881-P135.minimised.mol

>  <scratch_subdir>  (64) 
/opt/xchem-fragalysis-2/maxwin/BulkDock/SCRATCH/505735/C3881-P135

>  <fragmenstein_runtime>  (64) 
14.093340396881104

>  <fragmenstein_outcome>  (64) 
too moved

>  <fragmenstein_mode>  (64) 
expansion

>  <fragmenstein_error>  (64) 


$$$$
C3881-P167
     RDKit          3D

 67 71  0  0  0  0  0  0  0  0999 V2000
    4.3006   -2.5228   29.1308 C   0  0  0  0  0  0  0  0  0  0  0  0
    2.8262   -2.6016   29.4277 N   0  0  0  0  0  0  0  0  0  0  0  0
    2.8170   -1.3153   28.6228 C   0  0  0  0  0  0  0  0  0  0  0  0
    1.4676   -0.6254   28.8436 C   0  0  0  0  0  0  0  0  0  0  0  0
    1.4162    0.6708   29.3784 C   0  0  0  0  0  0  0  0  0  0  0  0
    0.1961    1.3336   29.5148 C   0  0  0  0  0  0  0  0  0  0  0  0
   -0.9866    0.7111   29.1232 C   0  0  0  0  0  0  0  0  0  0  0  0
   -0.9545   -0.5814   28.6120 C   0  0  0  0  0  0  0  0  0  0  0  0
    0.2636   -1.2463   28.4817 C   0  0  0  0  0  0  0  0  0  0  0  0
    2.3300   -3.9063   29.1098 C   0  0  0  0  0  0  0  0  0  0  0  0
    1.8600   -4.3376   28.0890 O   0  0  0  0  0  0  0  0  0  0  0  0
    2.3650   -4.7792   30.3522 C   0  0  0  0  0  0  0  0  0  0  0  0
    1.0801   -4.8481   31.0116 N   0  0  0  0  0  0  0  0  0  0  0  0
    0.3095   -5.9590   31.1708 C   0  0  0  0  0  0  0  0  0  0  0  0
   -0.6559   -5.7032   32.0204 N   0  0  0  0  0  0  0  0  0  0  0  0
   -0.4955   -4.4050   32.4425 N   0  0  0  0  0  0  0  0  0  0  0  0
    0.5161   -3.8728   31.7935 C   0  0  0  0  0  0  0  0  0  0  0  0
    1.0276   -2.6271   31.8246 N   0  0  0  0  0  0  0  0  0  0  0  0
    0.7512   -1.6716   32.8642 C   0  0  0  0  0  0  0  0  0  0  0  0
   -0.8023   -0.7872   32.6606 S   0  0  0  0  0  0  0  0  0  0  0  0
   -1.9169   -1.8746   33.6165 C   0  0  0  0  0  0  0  0  0  0  0  0
   -3.5430   -1.1019   33.7096 Cl  0  0  0  0  0  0  0  0  0  0  0  0
   -1.3802   -2.0701   35.0709 C   0  0  0  0  0  0  0  0  0  0  0  0
   -1.4683   -1.1562   35.8468 O   0  0  0  0  0  0  0  0  0  0  0  0
   -0.7502   -3.3710   35.2095 N   0  0  0  0  0  0  0  0  0  0  0  0
    0.0522   -3.9367   36.2925 C   0  0  0  0  0  0  0  0  0  0  0  0
    0.6033   -5.3667   35.9369 C   0  0  0  0  0  0  0  0  0  0  0  0
    1.6450   -5.5865   35.1561 N   0  0  0  0  0  0  0  0  0  0  0  0
    2.1804   -6.8060   35.5198 N   0  0  0  0  0  0  0  0  0  0  0  0
    1.4465   -7.2681   36.5141 C   0  0  0  0  0  0  0  0  0  0  0  0
    1.8670   -8.2107   37.5026 C   0  0  0  0  0  0  0  0  0  0  0  0
    3.0914   -8.8456   37.5671 C   0  0  0  0  0  0  0  0  0  0  0  0
    3.2291   -9.6491   38.7370 C   0  0  0  0  0  0  0  0  0  0  0  0
    2.1036   -9.6040   39.5269 C   0  0  0  0  0  0  0  0  0  0  0  0
    0.9098   -8.5700   38.8781 S   0  0  0  0  0  0  0  0  0  0  0  0
    0.2858   -6.5382   36.5728 N   0  0  0  0  0  0  0  0  0  0  0  0
    1.2141   -3.0058   36.7681 C   0  0  0  0  0  0  0  0  0  0  0  0
    0.4018   -2.6336   38.0119 C   0  0  0  0  0  0  0  0  0  0  0  0
   -0.5526   -3.7979   37.7176 C   0  0  0  0  0  0  0  0  0  0  0  0
    4.8224   -1.7350   29.6942 H   0  0  0  0  0  0  0  0  0  0  0  0
    4.7353   -3.4464   29.5429 H   0  0  0  0  0  0  0  0  0  0  0  0
    4.5684   -2.5806   28.0638 H   0  0  0  0  0  0  0  0  0  0  0  0
    3.5539   -0.5490   28.9142 H   0  0  0  0  0  0  0  0  0  0  0  0
    2.8728   -1.5242   27.5447 H   0  0  0  0  0  0  0  0  0  0  0  0
    2.3242    1.1894   29.6753 H   0  0  0  0  0  0  0  0  0  0  0  0
    0.1632    2.3423   29.9176 H   0  0  0  0  0  0  0  0  0  0  0  0
   -1.9347    1.2348   29.2172 H   0  0  0  0  0  0  0  0  0  0  0  0
   -1.8724   -1.0713   28.2925 H   0  0  0  0  0  0  0  0  0  0  0  0
    0.2542   -2.2475   28.0622 H   0  0  0  0  0  0  0  0  0  0  0  0
    3.1005   -4.4253   31.0827 H   0  0  0  0  0  0  0  0  0  0  0  0
    2.6621   -5.7874   30.0494 H   0  0  0  0  0  0  0  0  0  0  0  0
    0.4876   -6.9038   30.6797 H   0  0  0  0  0  0  0  0  0  0  0  0
    1.3497   -2.1966   30.9584 H   0  0  0  0  0  0  0  0  0  0  0  0
    0.8906   -2.1064   33.8521 H   0  0  0  0  0  0  0  0  0  0  0  0
    1.5300   -0.9029   32.7984 H   0  0  0  0  0  0  0  0  0  0  0  0
   -2.0686   -2.7910   33.0625 H   0  0  0  0  0  0  0  0  0  0  0  0
   -0.9455   -3.9299   34.3677 H   0  0  0  0  0  0  0  0  0  0  0  0
    3.8615   -8.7250   36.8148 H   0  0  0  0  0  0  0  0  0  0  0  0
    4.1025  -10.2404   38.9813 H   0  0  0  0  0  0  0  0  0  0  0  0
    1.9134  -10.1373   40.4485 H   0  0  0  0  0  0  0  0  0  0  0  0
   -0.4621   -6.6975   37.2347 H   0  0  0  0  0  0  0  0  0  0  0  0
    1.4616   -2.1596   36.1203 H   0  0  0  0  0  0  0  0  0  0  0  0
    2.1513   -3.5200   37.0153 H   0  0  0  0  0  0  0  0  0  0  0  0
   -0.0673   -1.6464   37.9602 H   0  0  0  0  0  0  0  0  0  0  0  0
    0.9446   -2.7083   38.9587 H   0  0  0  0  0  0  0  0  0  0  0  0
   -0.3954   -4.6493   38.3891 H   0  0  0  0  0  0  0  0  0  0  0  0
   -1.6061   -3.5144   37.7794 H   0  0  0  0  0  0  0  0  0  0  0  0
  1  2  1  0
  2  3  1  0
  3  4  1  0
  4  5  2  0
  5  6  1  0
  6  7  2  0
  7  8  1  0
  8  9  2  0
  2 10  1  0
 10 11  2  0
 10 12  1  0
 12 13  1  0
 13 14  1  0
 14 15  2  0
 15 16  1  0
 16 17  2  0
 17 18  1  0
 18 19  1  0
 19 20  1  0
 20 21  1  0
 21 22  1  0
 21 23  1  0
 23 24  2  0
 23 25  1  0
 25 26  1  0
 26 27  1  0
 27 28  2  0
 28 29  1  0
 29 30  2  0
 30 31  1  0
 31 32  2  0
 32 33  1  0
 33 34  2  0
 34 35  1  0
 30 36  1  0
 26 37  1  0
 37 38  1  0
 38 39  1  0
  9  4  1  0
 17 13  1  0
 39 26  1  0
 36 27  1  0
 35 31  1  0
  1 40  1  0
  1 41  1  0
  1 42  1  0
  3 43  1  0
  3 44  1  0
  5 45  1  0
  6 46  1  0
  7 47  1  0
  8 48  1  0
  9 49  1  0
 12 50  1  0
 12 51  1  0
 14 52  1  0
 18 53  1  0
 19 54  1  0
 19 55  1  0
 21 56  1  0
 25 57  1  0
 32 58  1  0
 33 59  1  0
 34 60  1  0
 36 61  1  0
 37 62  1  0
 37 63  1  0
 38 64  1  0
 38 65  1  0
 39 66  1  0
 39 67  1  0
M  END
>  <Energy>  (65) 
72.797308570954883

>  <compound_id>  (65) 
3881

>  <target_id>  (65) 
1

>  <reference_id>  (65) 
167

>  <inspiration_ids>  (65) 
[135, 167]

>  <energy_score>  (65) 
-2.5416965852488005

>  <distance_score>  (65) 
3.0778701250039773

>  <path>  (65) 
/opt/xchem-fragalysis-2/maxwin/BulkDock/SCRATCH/505735/C3881-P167/C3881-P167.minimised.mol

>  <scratch_subdir>  (65) 
/opt/xchem-fragalysis-2/maxwin/BulkDock/SCRATCH/505735/C3881-P167

>  <fragmenstein_runtime>  (65) 
12.05659794807434

>  <fragmenstein_outcome>  (65) 
too moved

>  <fragmenstein_mode>  (65) 
expansion

>  <fragmenstein_error>  (65) 


$$$$
C3914-P135
     RDKit          3D

 60 63  0  0  0  0  0  0  0  0999 V2000
    0.1930   -0.7090   33.4514 C   0  0  0  0  0  0  0  0  0  0  0  0
   -0.0272   -2.0462   32.8720 N   0  0  0  0  0  0  0  0  0  0  0  0
   -0.7516   -1.8904   31.5824 C   0  0  0  0  0  0  0  0  0  0  0  0
    0.0209   -1.2453   30.4495 C   0  0  0  0  0  0  0  0  0  0  0  0
    1.4177   -1.2960   30.3500 C   0  0  0  0  0  0  0  0  0  0  0  0
    2.0753   -0.7196   29.2624 C   0  0  0  0  0  0  0  0  0  0  0  0
    1.3439   -0.1054   28.2502 C   0  0  0  0  0  0  0  0  0  0  0  0
   -0.0459   -0.0740   28.3182 C   0  0  0  0  0  0  0  0  0  0  0  0
   -0.7027   -0.6421   29.4082 C   0  0  0  0  0  0  0  0  0  0  0  0
   -0.7795   -2.9228   33.7814 C   0  0  0  0  0  0  0  0  0  0  0  0
   -2.1145   -2.4292   33.8859 O   0  0  0  0  0  0  0  0  0  0  0  0
   -0.8616   -4.4080   33.2859 C   0  0  0  0  0  0  0  0  0  0  0  0
    0.1571   -5.0726   32.5333 N   0  0  0  0  0  0  0  0  0  0  0  0
   -0.0524   -6.2804   31.9315 C   0  0  0  0  0  0  0  0  0  0  0  0
    0.9977   -6.5909   31.2202 N   0  0  0  0  0  0  0  0  0  0  0  0
    1.9328   -5.5999   31.4043 N   0  0  0  0  0  0  0  0  0  0  0  0
    1.4080   -4.6924   32.1945 C   0  0  0  0  0  0  0  0  0  0  0  0
   -0.1453   -2.8724   35.0922 N   0  0  0  0  0  0  0  0  0  0  0  0
   -1.0484   -3.1045   36.2238 C   0  0  0  0  0  0  0  0  0  0  0  0
   -0.3260   -3.3043   37.5976 C   0  0  0  0  0  0  0  0  0  0  0  0
    0.3981   -1.9602   37.9389 C   0  0  0  0  0  0  0  0  0  0  0  0
    1.1375   -2.2106   39.1899 C   0  0  0  0  0  0  0  0  0  0  0  0
    1.9483   -1.0641   40.1204 S   0  0  0  0  0  0  0  0  0  0  0  0
    2.4449   -2.2762   41.2324 C   0  0  0  0  0  0  0  0  0  0  0  0
    1.9859   -3.5301   40.8758 C   0  0  0  0  0  0  0  0  0  0  0  0
    1.2224   -3.4876   39.6743 C   0  0  0  0  0  0  0  0  0  0  0  0
    0.5259   -4.5932   38.9400 C   0  0  0  0  0  0  0  0  0  0  0  0
    0.6560   -4.5139   37.3979 N   0  0  0  0  0  0  0  0  0  0  0  0
    0.4389   -5.8104   36.8204 C   0  0  0  0  0  0  0  0  0  0  0  0
   -0.5727   -6.3311   36.4258 O   0  0  0  0  0  0  0  0  0  0  0  0
    1.8111   -6.5113   36.6808 C   0  0  0  0  0  0  0  0  0  0  0  0
    2.0202   -7.2062   35.0174 S   0  0  0  0  0  0  0  0  0  0  0  0
    1.8949   -7.8043   37.8824 Cl  0  0  0  0  0  0  0  0  0  0  0  0
   -0.7438   -0.2176   33.7398 H   0  0  0  0  0  0  0  0  0  0  0  0
    0.8479   -0.7526   34.3286 H   0  0  0  0  0  0  0  0  0  0  0  0
    0.7114   -0.0426   32.7542 H   0  0  0  0  0  0  0  0  0  0  0  0
   -1.6757   -1.3168   31.7401 H   0  0  0  0  0  0  0  0  0  0  0  0
   -1.0500   -2.8690   31.1899 H   0  0  0  0  0  0  0  0  0  0  0  0
    2.0097   -1.7812   31.1200 H   0  0  0  0  0  0  0  0  0  0  0  0
    3.1590   -0.7620   29.1976 H   0  0  0  0  0  0  0  0  0  0  0  0
    1.8580    0.3296   27.3979 H   0  0  0  0  0  0  0  0  0  0  0  0
   -0.6232    0.3743   27.5136 H   0  0  0  0  0  0  0  0  0  0  0  0
   -1.7899   -0.6214   29.4267 H   0  0  0  0  0  0  0  0  0  0  0  0
   -2.6595   -3.1655   34.2268 H   0  0  0  0  0  0  0  0  0  0  0  0
   -1.7212   -4.4474   32.6210 H   0  0  0  0  0  0  0  0  0  0  0  0
   -1.0811   -5.0754   34.1256 H   0  0  0  0  0  0  0  0  0  0  0  0
   -0.9568   -6.8650   32.0289 H   0  0  0  0  0  0  0  0  0  0  0  0
    1.8930   -3.7821   32.5162 H   0  0  0  0  0  0  0  0  0  0  0  0
    0.6537   -3.4969   35.1254 H   0  0  0  0  0  0  0  0  0  0  0  0
   -1.6586   -3.9959   36.0494 H   0  0  0  0  0  0  0  0  0  0  0  0
   -1.7361   -2.2555   36.3254 H   0  0  0  0  0  0  0  0  0  0  0  0
   -1.1909   -3.4941   38.2579 H   0  0  0  0  0  0  0  0  0  0  0  0
   -0.3344   -1.1548   38.0615 H   0  0  0  0  0  0  0  0  0  0  0  0
    1.1024   -1.6763   37.1488 H   0  0  0  0  0  0  0  0  0  0  0  0
    3.0463   -2.0085   42.0907 H   0  0  0  0  0  0  0  0  0  0  0  0
    2.1921   -4.4228   41.4548 H   0  0  0  0  0  0  0  0  0  0  0  0
    1.0988   -5.4916   39.2076 H   0  0  0  0  0  0  0  0  0  0  0  0
   -0.4767   -4.8630   39.3083 H   0  0  0  0  0  0  0  0  0  0  0  0
    2.6326   -5.8149   36.8732 H   0  0  0  0  0  0  0  0  0  0  0  0
    2.2459   -6.0428   34.3941 H   0  0  0  0  0  0  0  0  0  0  0  0
  1  2  1  0
  2  3  1  0
  3  4  1  0
  4  5  2  0
  5  6  1  0
  6  7  2  0
  7  8  1  0
  8  9  2  0
  2 10  1  0
 10 11  1  0
 10 12  1  0
 12 13  1  0
 13 14  1  0
 14 15  2  0
 15 16  1  0
 16 17  2  0
 10 18  1  0
 18 19  1  0
 19 20  1  0
 20 21  1  0
 21 22  1  0
 22 23  1  0
 23 24  1  0
 24 25  2  0
 25 26  1  0
 26 27  1  0
 27 28  1  0
 28 29  1  0
 29 30  2  0
 29 31  1  0
 31 32  1  0
 31 33  1  0
  9  4  1  0
 17 13  1  0
 28 20  1  0
 26 22  2  0
  1 34  1  0
  1 35  1  0
  1 36  1  0
  3 37  1  0
  3 38  1  0
  5 39  1  0
  6 40  1  0
  7 41  1  0
  8 42  1  0
  9 43  1  0
 11 44  1  0
 12 45  1  0
 12 46  1  0
 14 47  1  0
 17 48  1  0
 18 49  1  0
 19 50  1  0
 19 51  1  0
 20 52  1  0
 21 53  1  0
 21 54  1  0
 24 55  1  0
 25 56  1  0
 27 57  1  0
 27 58  1  0
 31 59  1  0
 32 60  1  0
M  END
>  <Energy>  (66) 
80.333232032712729

>  <compound_id>  (66) 
3914

>  <target_id>  (66) 
1

>  <reference_id>  (66) 
135

>  <inspiration_ids>  (66) 
[135, 168]

>  <energy_score>  (66) 
-1.6119885323515746

>  <distance_score>  (66) 
2.369536215870656

>  <path>  (66) 
/opt/xchem-fragalysis-2/maxwin/BulkDock/SCRATCH/505735/C3914-P135/C3914-P135.minimised.mol

>  <scratch_subdir>  (66) 
/opt/xchem-fragalysis-2/maxwin/BulkDock/SCRATCH/505735/C3914-P135

>  <fragmenstein_runtime>  (66) 
19.411388397216797

>  <fragmenstein_outcome>  (66) 
too moved

>  <fragmenstein_mode>  (66) 
expansion

>  <fragmenstein_error>  (66) 


$$$$
C3914-P168
     RDKit          3D

 60 63  0  0  0  0  0  0  0  0999 V2000
    1.6503   -2.5851   33.3208 C   0  0  0  0  0  0  0  0  0  0  0  0
    0.1962   -2.6574   33.2580 N   0  0  0  0  0  0  0  0  0  0  0  0
   -0.4217   -1.5015   32.6184 C   0  0  0  0  0  0  0  0  0  0  0  0
   -0.0399   -1.2303   31.1858 C   0  0  0  0  0  0  0  0  0  0  0  0
    1.0007   -0.3355   30.8882 C   0  0  0  0  0  0  0  0  0  0  0  0
    1.3095   -0.0205   29.5667 C   0  0  0  0  0  0  0  0  0  0  0  0
    0.5766   -0.5913   28.5316 C   0  0  0  0  0  0  0  0  0  0  0  0
   -0.4482   -1.4917   28.8120 C   0  0  0  0  0  0  0  0  0  0  0  0
   -0.7479   -1.8189   30.1328 C   0  0  0  0  0  0  0  0  0  0  0  0
   -0.3760   -3.9755   33.0377 C   0  0  0  0  0  0  0  0  0  0  0  0
   -1.7049   -3.8841   32.5656 O   0  0  0  0  0  0  0  0  0  0  0  0
    0.4542   -4.8710   32.0474 C   0  0  0  0  0  0  0  0  0  0  0  0
   -0.1535   -6.1017   31.5809 N   0  0  0  0  0  0  0  0  0  0  0  0
   -0.6562   -7.1419   32.2977 C   0  0  0  0  0  0  0  0  0  0  0  0
   -1.1565   -8.0403   31.4780 N   0  0  0  0  0  0  0  0  0  0  0  0
   -0.8824   -7.6319   30.1961 N   0  0  0  0  0  0  0  0  0  0  0  0
   -0.2440   -6.4869   30.2755 C   0  0  0  0  0  0  0  0  0  0  0  0
   -0.4683   -4.6530   34.3162 N   0  0  0  0  0  0  0  0  0  0  0  0
   -0.6246   -3.8666   35.5375 C   0  0  0  0  0  0  0  0  0  0  0  0
   -0.6062   -4.7706   36.8350 C   0  0  0  0  0  0  0  0  0  0  0  0
   -0.9838   -3.7419   37.9701 C   0  0  0  0  0  0  0  0  0  0  0  0
   -0.7558   -4.4091   39.2583 C   0  0  0  0  0  0  0  0  0  0  0  0
   -1.1445   -3.8118   40.7836 S   0  0  0  0  0  0  0  0  0  0  0  0
   -0.5117   -5.2257   41.5281 C   0  0  0  0  0  0  0  0  0  0  0  0
   -0.0138   -6.1228   40.6021 C   0  0  0  0  0  0  0  0  0  0  0  0
   -0.1544   -5.6337   39.2725 C   0  0  0  0  0  0  0  0  0  0  0  0
    0.2027   -6.2710   37.9731 C   0  0  0  0  0  0  0  0  0  0  0  0
    0.8698   -5.3412   36.9484 N   0  0  0  0  0  0  0  0  0  0  0  0
    1.6507   -6.1151   36.0207 C   0  0  0  0  0  0  0  0  0  0  0  0
    1.3506   -6.6050   34.9589 O   0  0  0  0  0  0  0  0  0  0  0  0
    3.1005   -6.1724   36.5345 C   0  0  0  0  0  0  0  0  0  0  0  0
    3.8809   -7.7175   36.0032 S   0  0  0  0  0  0  0  0  0  0  0  0
    3.9514   -4.7957   35.7818 Cl  0  0  0  0  0  0  0  0  0  0  0  0
    1.9727   -1.6234   33.7360 H   0  0  0  0  0  0  0  0  0  0  0  0
    2.0544   -3.3501   33.9895 H   0  0  0  0  0  0  0  0  0  0  0  0
    2.1243   -2.7087   32.3416 H   0  0  0  0  0  0  0  0  0  0  0  0
   -0.1623   -0.6124   33.2113 H   0  0  0  0  0  0  0  0  0  0  0  0
   -1.5159   -1.5271   32.7034 H   0  0  0  0  0  0  0  0  0  0  0  0
    1.5646    0.1396   31.6877 H   0  0  0  0  0  0  0  0  0  0  0  0
    2.1052    0.6849   29.3426 H   0  0  0  0  0  0  0  0  0  0  0  0
    0.7935   -0.3220   27.5031 H   0  0  0  0  0  0  0  0  0  0  0  0
   -1.0361   -1.9173   28.0012 H   0  0  0  0  0  0  0  0  0  0  0  0
   -1.5644   -2.5085   30.3307 H   0  0  0  0  0  0  0  0  0  0  0  0
   -2.2007   -3.6648   33.3787 H   0  0  0  0  0  0  0  0  0  0  0  0
    1.4222   -5.1568   32.4784 H   0  0  0  0  0  0  0  0  0  0  0  0
    0.6648   -4.2861   31.1431 H   0  0  0  0  0  0  0  0  0  0  0  0
   -0.6428   -7.2174   33.3746 H   0  0  0  0  0  0  0  0  0  0  0  0
    0.1255   -5.9040   29.4433 H   0  0  0  0  0  0  0  0  0  0  0  0
   -1.2327   -5.3207   34.2541 H   0  0  0  0  0  0  0  0  0  0  0  0
   -1.5611   -3.2987   35.5004 H   0  0  0  0  0  0  0  0  0  0  0  0
    0.1960   -3.1481   35.6475 H   0  0  0  0  0  0  0  0  0  0  0  0
   -1.3880   -5.5233   36.6406 H   0  0  0  0  0  0  0  0  0  0  0  0
   -2.0290   -3.4315   37.8612 H   0  0  0  0  0  0  0  0  0  0  0  0
   -0.3492   -2.8492   37.9072 H   0  0  0  0  0  0  0  0  0  0  0  0
   -0.5415   -5.3299   42.6043 H   0  0  0  0  0  0  0  0  0  0  0  0
    0.4178   -7.0788   40.8764 H   0  0  0  0  0  0  0  0  0  0  0  0
    1.0016   -6.9864   38.2295 H   0  0  0  0  0  0  0  0  0  0  0  0
   -0.5506   -6.9505   37.5492 H   0  0  0  0  0  0  0  0  0  0  0  0
    3.1588   -6.0737   37.6215 H   0  0  0  0  0  0  0  0  0  0  0  0
    3.7495   -7.4427   34.7004 H   0  0  0  0  0  0  0  0  0  0  0  0
  1  2  1  0
  2  3  1  0
  3  4  1  0
  4  5  2  0
  5  6  1  0
  6  7  2  0
  7  8  1  0
  8  9  2  0
  2 10  1  0
 10 11  1  0
 10 12  1  0
 12 13  1  0
 13 14  1  0
 14 15  2  0
 15 16  1  0
 16 17  2  0
 10 18  1  0
 18 19  1  0
 19 20  1  0
 20 21  1  0
 21 22  1  0
 22 23  1  0
 23 24  1  0
 24 25  2  0
 25 26  1  0
 26 27  1  0
 27 28  1  0
 28 29  1  0
 29 30  2  0
 29 31  1  0
 31 32  1  0
 31 33  1  0
  9  4  1  0
 17 13  1  0
 28 20  1  0
 26 22  2  0
  1 34  1  0
  1 35  1  0
  1 36  1  0
  3 37  1  0
  3 38  1  0
  5 39  1  0
  6 40  1  0
  7 41  1  0
  8 42  1  0
  9 43  1  0
 11 44  1  0
 12 45  1  0
 12 46  1  0
 14 47  1  0
 17 48  1  0
 18 49  1  0
 19 50  1  0
 19 51  1  0
 20 52  1  0
 21 53  1  0
 21 54  1  0
 24 55  1  0
 25 56  1  0
 27 57  1  0
 27 58  1  0
 31 59  1  0
 32 60  1  0
M  END
>  <Energy>  (67) 
75.250081038749812

>  <compound_id>  (67) 
3914

>  <target_id>  (67) 
1

>  <reference_id>  (67) 
168

>  <inspiration_ids>  (67) 
[135, 168]

>  <energy_score>  (67) 
-6.695139526318997

>  <distance_score>  (67) 
1.977602995087583

>  <path>  (67) 
/opt/xchem-fragalysis-2/maxwin/BulkDock/SCRATCH/505735/C3914-P168/C3914-P168.minimised.mol

>  <scratch_subdir>  (67) 
/opt/xchem-fragalysis-2/maxwin/BulkDock/SCRATCH/505735/C3914-P168

>  <fragmenstein_runtime>  (67) 
19.793275594711304

>  <fragmenstein_outcome>  (67) 
too moved

>  <fragmenstein_mode>  (67) 
expansion

>  <fragmenstein_error>  (67) 


$$$$
C3915-P135
     RDKit          3D

 49 52  0  0  0  0  0  0  0  0999 V2000
    0.4008   -2.6348   33.6462 C   0  0  0  0  0  0  0  0  0  0  0  0
   -0.7219   -1.8381   33.0638 N   0  0  0  0  0  0  0  0  0  0  0  0
   -1.9925   -2.6640   32.9744 C   0  0  0  0  0  0  0  0  0  0  0  0
   -2.3972   -3.3471   32.1060 O   0  0  0  0  0  0  0  0  0  0  0  0
    0.3669   -1.5596   32.0143 C   0  0  0  0  0  0  0  0  0  0  0  0
    0.1668   -2.3581   30.6819 C   0  0  0  0  0  0  0  0  0  0  0  0
   -0.9574   -1.6890   29.8479 C   0  0  0  0  0  0  0  0  0  0  0  0
   -0.5498   -0.3760   29.1851 C   0  0  0  0  0  0  0  0  0  0  0  0
    0.6917   -0.5587   28.3425 C   0  0  0  0  0  0  0  0  0  0  0  0
    1.8194   -1.1937   29.1318 C   0  0  0  0  0  0  0  0  0  0  0  0
    2.1900   -0.3180   30.1164 F   0  0  0  0  0  0  0  0  0  0  0  0
    1.4574   -2.5356   29.8082 C   0  0  0  0  0  0  0  0  0  0  0  0
    2.6983   -3.0698   30.5452 C   0  0  0  0  0  0  0  0  0  0  0  0
    2.4983   -4.5189   30.6580 N   0  0  0  0  0  0  0  0  0  0  0  0
    1.6842   -4.8791   29.5103 C   0  0  0  0  0  0  0  0  0  0  0  0
    2.4777   -6.1699   28.4988 S   0  0  0  0  0  0  0  0  0  0  0  0
    3.8670   -5.4364   27.7797 C   0  0  0  0  0  0  0  0  0  0  0  0
    3.6996   -4.4021   26.9397 C   0  0  0  0  0  0  0  0  0  0  0  0
    4.8357   -3.7619   26.3255 C   0  0  0  0  0  0  0  0  0  0  0  0
    6.0836   -4.1984   26.5458 C   0  0  0  0  0  0  0  0  0  0  0  0
    6.3046   -5.3024   27.3951 C   0  0  0  0  0  0  0  0  0  0  0  0
    7.4088   -5.8743   27.8199 N   0  0  0  0  0  0  0  0  0  0  0  0
    7.0605   -6.8859   28.6643 N   0  0  0  0  0  0  0  0  0  0  0  0
    5.7537   -6.8945   28.7228 C   0  0  0  0  0  0  0  0  0  0  0  0
    5.1952   -5.8984   27.9756 N   0  0  0  0  0  0  0  0  0  0  0  0
    1.3067   -3.6500   28.8244 N   0  0  0  0  0  0  0  0  0  0  0  0
    0.7547   -3.4820   33.0406 H   0  0  0  0  0  0  0  0  0  0  0  0
   -0.0451   -3.1393   34.5179 H   0  0  0  0  0  0  0  0  0  0  0  0
    1.1899   -2.0200   34.1062 H   0  0  0  0  0  0  0  0  0  0  0  0
   -2.4762   -2.5460   33.9629 H   0  0  0  0  0  0  0  0  0  0  0  0
    1.4166   -1.4116   32.3164 H   0  0  0  0  0  0  0  0  0  0  0  0
    0.1216   -0.5130   31.7846 H   0  0  0  0  0  0  0  0  0  0  0  0
   -0.1814   -3.3620   30.9522 H   0  0  0  0  0  0  0  0  0  0  0  0
   -1.2912   -2.3877   29.0704 H   0  0  0  0  0  0  0  0  0  0  0  0
   -1.8392   -1.4942   30.4659 H   0  0  0  0  0  0  0  0  0  0  0  0
   -1.3717   -0.0217   28.5515 H   0  0  0  0  0  0  0  0  0  0  0  0
   -0.3839    0.4062   29.9332 H   0  0  0  0  0  0  0  0  0  0  0  0
    1.0101    0.4140   27.9523 H   0  0  0  0  0  0  0  0  0  0  0  0
    0.4419   -1.1927   27.4961 H   0  0  0  0  0  0  0  0  0  0  0  0
    2.6897   -1.3134   28.4756 H   0  0  0  0  0  0  0  0  0  0  0  0
    2.8719   -2.6309   31.5291 H   0  0  0  0  0  0  0  0  0  0  0  0
    3.6136   -2.8991   29.9625 H   0  0  0  0  0  0  0  0  0  0  0  0
    1.9526   -4.7127   31.4926 H   0  0  0  0  0  0  0  0  0  0  0  0
    0.7677   -5.3457   29.8915 H   0  0  0  0  0  0  0  0  0  0  0  0
    2.7387   -3.9701   26.7302 H   0  0  0  0  0  0  0  0  0  0  0  0
    4.6663   -2.8881   25.7023 H   0  0  0  0  0  0  0  0  0  0  0  0
    6.9396   -3.6894   26.1254 H   0  0  0  0  0  0  0  0  0  0  0  0
    5.1842   -7.5727   29.3024 H   0  0  0  0  0  0  0  0  0  0  0  0
    0.3445   -3.7229   28.4938 H   0  0  0  0  0  0  0  0  0  0  0  0
  1  2  1  0
  2  3  1  0
  3  4  2  0
  2  5  1  0
  5  6  1  0
  6  7  1  0
  7  8  1  0
  8  9  1  0
  9 10  1  0
 10 11  1  0
 10 12  1  0
 12 13  1  0
 13 14  1  0
 14 15  1  0
 15 16  1  0
 16 17  1  0
 17 18  2  0
 18 19  1  0
 19 20  2  0
 20 21  1  0
 21 22  2  0
 22 23  1  0
 23 24  2  0
 24 25  1  0
 15 26  1  0
 12  6  1  0
 25 17  1  0
 26 12  1  0
 25 21  1  0
  1 27  1  0
  1 28  1  0
  1 29  1  0
  3 30  1  0
  5 31  1  0
  5 32  1  0
  6 33  1  0
  7 34  1  0
  7 35  1  0
  8 36  1  0
  8 37  1  0
  9 38  1  0
  9 39  1  0
 10 40  1  0
 13 41  1  0
 13 42  1  0
 14 43  1  0
 15 44  1  0
 18 45  1  0
 19 46  1  0
 20 47  1  0
 24 48  1  0
 26 49  1  0
M  END
>  <Energy>  (68) 
86.834698878017235

>  <compound_id>  (68) 
3915

>  <target_id>  (68) 
1

>  <reference_id>  (68) 
135

>  <inspiration_ids>  (68) 
[135, 175]

>  <energy_score>  (68) 
35.31278989990159

>  <distance_score>  (68) 
2.405168109735972

>  <path>  (68) 
/opt/xchem-fragalysis-2/maxwin/BulkDock/SCRATCH/505735/C3915-P135/C3915-P135.minimised.mol

>  <scratch_subdir>  (68) 
/opt/xchem-fragalysis-2/maxwin/BulkDock/SCRATCH/505735/C3915-P135

>  <fragmenstein_runtime>  (68) 
5.937697410583496

>  <fragmenstein_outcome>  (68) 
too moved

>  <fragmenstein_mode>  (68) 
expansion

>  <fragmenstein_error>  (68) 


$$$$
C3915-P175
     RDKit          3D

 49 52  0  0  0  0  0  0  0  0999 V2000
    1.2124   -2.9702   34.0044 C   0  0  0  0  0  0  0  0  0  0  0  0
    0.1495   -2.6285   32.9945 N   0  0  0  0  0  0  0  0  0  0  0  0
   -0.6708   -3.8415   32.6344 C   0  0  0  0  0  0  0  0  0  0  0  0
   -0.5160   -4.6390   31.7878 O   0  0  0  0  0  0  0  0  0  0  0  0
    1.3690   -2.0100   32.3071 C   0  0  0  0  0  0  0  0  0  0  0  0
    0.9961   -1.4161   30.8962 C   0  0  0  0  0  0  0  0  0  0  0  0
   -0.4787   -0.9915   30.8018 C   0  0  0  0  0  0  0  0  0  0  0  0
   -0.7657   -0.1865   29.5433 C   0  0  0  0  0  0  0  0  0  0  0  0
   -0.3901   -0.9790   28.3050 C   0  0  0  0  0  0  0  0  0  0  0  0
    1.0739   -1.3695   28.3522 C   0  0  0  0  0  0  0  0  0  0  0  0
    1.8090   -0.2122   28.3322 F   0  0  0  0  0  0  0  0  0  0  0  0
    1.4969   -2.1824   29.6112 C   0  0  0  0  0  0  0  0  0  0  0  0
    3.0332   -2.3093   29.5705 C   0  0  0  0  0  0  0  0  0  0  0  0
    3.3352   -3.5881   30.2123 N   0  0  0  0  0  0  0  0  0  0  0  0
    2.1771   -4.4293   29.9966 C   0  0  0  0  0  0  0  0  0  0  0  0
    2.4818   -5.9379   29.0333 S   0  0  0  0  0  0  0  0  0  0  0  0
    3.6651   -5.5295   27.8418 C   0  0  0  0  0  0  0  0  0  0  0  0
    3.3564   -4.6546   26.8716 C   0  0  0  0  0  0  0  0  0  0  0  0
    4.3717   -4.2652   25.9179 C   0  0  0  0  0  0  0  0  0  0  0  0
    5.5965   -4.8205   25.9013 C   0  0  0  0  0  0  0  0  0  0  0  0
    5.9415   -5.7605   26.8980 C   0  0  0  0  0  0  0  0  0  0  0  0
    7.0679   -6.3733   27.1878 N   0  0  0  0  0  0  0  0  0  0  0  0
    6.8704   -7.1174   28.3165 N   0  0  0  0  0  0  0  0  0  0  0  0
    5.6276   -6.9336   28.6740 C   0  0  0  0  0  0  0  0  0  0  0  0
    4.9724   -6.0795   27.8353 N   0  0  0  0  0  0  0  0  0  0  0  0
    1.1040   -3.6012   29.4685 N   0  0  0  0  0  0  0  0  0  0  0  0
    1.7068   -2.1250   34.5067 H   0  0  0  0  0  0  0  0  0  0  0  0
    1.8840   -3.7880   33.6977 H   0  0  0  0  0  0  0  0  0  0  0  0
    0.6459   -3.4357   34.8266 H   0  0  0  0  0  0  0  0  0  0  0  0
   -1.4580   -3.8926   33.4073 H   0  0  0  0  0  0  0  0  0  0  0  0
    2.2101   -2.6882   32.1458 H   0  0  0  0  0  0  0  0  0  0  0  0
    1.6891   -1.1156   32.8702 H   0  0  0  0  0  0  0  0  0  0  0  0
    1.5646   -0.4710   30.8655 H   0  0  0  0  0  0  0  0  0  0  0  0
   -1.1332   -1.8702   30.8022 H   0  0  0  0  0  0  0  0  0  0  0  0
   -0.7500   -0.3821   31.6725 H   0  0  0  0  0  0  0  0  0  0  0  0
   -1.8312    0.0685   29.5065 H   0  0  0  0  0  0  0  0  0  0  0  0
   -0.2140    0.7609   29.5705 H   0  0  0  0  0  0  0  0  0  0  0  0
   -0.5766   -0.3525   27.4265 H   0  0  0  0  0  0  0  0  0  0  0  0
   -1.0215   -1.8706   28.2209 H   0  0  0  0  0  0  0  0  0  0  0  0
    1.3392   -1.9151   27.4430 H   0  0  0  0  0  0  0  0  0  0  0  0
    3.5398   -1.4929   30.0953 H   0  0  0  0  0  0  0  0  0  0  0  0
    3.4139   -2.3239   28.5425 H   0  0  0  0  0  0  0  0  0  0  0  0
    4.1629   -3.9978   29.7951 H   0  0  0  0  0  0  0  0  0  0  0  0
    1.8809   -4.7980   30.9828 H   0  0  0  0  0  0  0  0  0  0  0  0
    2.3893   -4.1690   26.8162 H   0  0  0  0  0  0  0  0  0  0  0  0
    4.1259   -3.4688   25.2258 H   0  0  0  0  0  0  0  0  0  0  0  0
    6.3558   -4.5184   25.1861 H   0  0  0  0  0  0  0  0  0  0  0  0
    5.1643   -7.3740   29.5189 H   0  0  0  0  0  0  0  0  0  0  0  0
    0.2576   -3.8054   30.0066 H   0  0  0  0  0  0  0  0  0  0  0  0
  1  2  1  0
  2  3  1  0
  3  4  2  0
  2  5  1  0
  5  6  1  0
  6  7  1  0
  7  8  1  0
  8  9  1  0
  9 10  1  0
 10 11  1  0
 10 12  1  0
 12 13  1  0
 13 14  1  0
 14 15  1  0
 15 16  1  0
 16 17  1  0
 17 18  2  0
 18 19  1  0
 19 20  2  0
 20 21  1  0
 21 22  2  0
 22 23  1  0
 23 24  2  0
 24 25  1  0
 15 26  1  0
 12  6  1  0
 25 17  1  0
 26 12  1  0
 25 21  1  0
  1 27  1  0
  1 28  1  0
  1 29  1  0
  3 30  1  0
  5 31  1  0
  5 32  1  0
  6 33  1  0
  7 34  1  0
  7 35  1  0
  8 36  1  0
  8 37  1  0
  9 38  1  0
  9 39  1  0
 10 40  1  0
 13 41  1  0
 13 42  1  0
 14 43  1  0
 15 44  1  0
 18 45  1  0
 19 46  1  0
 20 47  1  0
 24 48  1  0
 26 49  1  0
M  END
>  <Energy>  (69) 
80.469910979273024

>  <compound_id>  (69) 
3915

>  <target_id>  (69) 
1

>  <reference_id>  (69) 
175

>  <inspiration_ids>  (69) 
[135, 175]

>  <energy_score>  (69) 
28.948002001154123

>  <distance_score>  (69) 
2.0619308539683896

>  <path>  (69) 
/opt/xchem-fragalysis-2/maxwin/BulkDock/SCRATCH/505735/C3915-P175/C3915-P175.minimised.mol

>  <scratch_subdir>  (69) 
/opt/xchem-fragalysis-2/maxwin/BulkDock/SCRATCH/505735/C3915-P175

>  <fragmenstein_runtime>  (69) 
4.384108066558838

>  <fragmenstein_outcome>  (69) 
too moved

>  <fragmenstein_mode>  (69) 
expansion

>  <fragmenstein_error>  (69) 


$$$$
C3886-P135
     RDKit          3D

 36 38  0  0  0  0  0  0  0  0999 V2000
    1.7907   -3.3963   32.8645 C   0  0  0  0  0  0  0  0  0  0  0  0
    0.2605   -3.5259   32.8242 C   0  0  0  0  0  0  0  0  0  0  0  0
   -0.3670   -2.0879   32.6842 C   0  0  0  0  0  0  0  0  0  0  0  0
   -0.1326   -1.4046   31.3367 C   0  0  0  0  0  0  0  0  0  0  0  0
    1.0352   -0.6769   31.0772 C   0  0  0  0  0  0  0  0  0  0  0  0
    1.2740   -0.1380   29.8067 C   0  0  0  0  0  0  0  0  0  0  0  0
    0.3495   -0.3156   28.7789 C   0  0  0  0  0  0  0  0  0  0  0  0
   -0.8296   -1.0079   29.0262 C   0  0  0  0  0  0  0  0  0  0  0  0
   -1.0740   -1.5282   30.2992 C   0  0  0  0  0  0  0  0  0  0  0  0
   -0.2458   -4.2808   34.1012 C   0  0  0  0  0  0  0  0  0  0  0  0
    0.0737   -5.7940   34.2586 C   0  0  0  0  0  0  0  0  0  0  0  0
   -0.4206   -6.7309   33.1927 C   0  0  0  0  0  0  0  0  0  0  0  0
   -1.2151   -7.7723   33.3357 N   0  0  0  0  0  0  0  0  0  0  0  0
   -1.3552   -8.3900   32.1084 N   0  0  0  0  0  0  0  0  0  0  0  0
   -0.6390   -7.7217   31.2430 C   0  0  0  0  0  0  0  0  0  0  0  0
   -0.0571   -6.6728   31.8707 N   0  0  0  0  0  0  0  0  0  0  0  0
    0.5324   -5.5402   31.2185 C   0  0  0  0  0  0  0  0  0  0  0  0
   -0.2705   -4.3537   31.6683 C   0  0  0  0  0  0  0  0  0  0  0  0
   -1.4416   -4.2374   31.2900 O   0  0  0  0  0  0  0  0  0  0  0  0
    2.2792   -4.3243   33.1777 H   0  0  0  0  0  0  0  0  0  0  0  0
    2.2027   -3.1416   31.8825 H   0  0  0  0  0  0  0  0  0  0  0  0
    2.1023   -2.6257   33.5785 H   0  0  0  0  0  0  0  0  0  0  0  0
   -1.4514   -2.1364   32.8561 H   0  0  0  0  0  0  0  0  0  0  0  0
    0.0170   -1.4373   33.4813 H   0  0  0  0  0  0  0  0  0  0  0  0
    1.7774   -0.5278   31.8578 H   0  0  0  0  0  0  0  0  0  0  0  0
    2.1877    0.4195   29.6165 H   0  0  0  0  0  0  0  0  0  0  0  0
    0.5391    0.0921   27.7898 H   0  0  0  0  0  0  0  0  0  0  0  0
   -1.5594   -1.1468   28.2297 H   0  0  0  0  0  0  0  0  0  0  0  0
   -2.0102   -2.0578   30.4629 H   0  0  0  0  0  0  0  0  0  0  0  0
    0.1507   -3.7626   34.9848 H   0  0  0  0  0  0  0  0  0  0  0  0
   -1.3257   -4.1542   34.1523 H   0  0  0  0  0  0  0  0  0  0  0  0
   -0.3534   -6.1233   35.2149 H   0  0  0  0  0  0  0  0  0  0  0  0
    1.1578   -5.9271   34.3546 H   0  0  0  0  0  0  0  0  0  0  0  0
   -0.5379   -7.9382   30.1901 H   0  0  0  0  0  0  0  0  0  0  0  0
    0.4395   -5.6426   30.1331 H   0  0  0  0  0  0  0  0  0  0  0  0
    1.5908   -5.5008   31.4700 H   0  0  0  0  0  0  0  0  0  0  0  0
  1  2  1  0
  2  3  1  0
  3  4  1  0
  4  5  2  0
  5  6  1  0
  6  7  2  0
  7  8  1  0
  8  9  2  0
  2 10  1  0
 10 11  1  0
 11 12  1  0
 12 13  2  0
 13 14  1  0
 14 15  2  0
 15 16  1  0
 16 17  1  0
 17 18  1  0
 18 19  2  0
 18  2  1  0
  9  4  1  0
 16 12  1  0
  1 20  1  0
  1 21  1  0
  1 22  1  0
  3 23  1  0
  3 24  1  0
  5 25  1  0
  6 26  1  0
  7 27  1  0
  8 28  1  0
  9 29  1  0
 10 30  1  0
 10 31  1  0
 11 32  1  0
 11 33  1  0
 15 34  1  0
 17 35  1  0
 17 36  1  0
M  END
>  <Energy>  (70) 
38.086022714268765

>  <compound_id>  (70) 
3886

>  <target_id>  (70) 
1

>  <reference_id>  (70) 
135

>  <inspiration_ids>  (70) 
[135, 180]

>  <energy_score>  (70) 
-16.05133136125309

>  <distance_score>  (70) 
1.276521702917516

>  <path>  (70) 
/opt/xchem-fragalysis-2/maxwin/BulkDock/SCRATCH/505735/C3886-P135/C3886-P135.minimised.mol

>  <scratch_subdir>  (70) 
/opt/xchem-fragalysis-2/maxwin/BulkDock/SCRATCH/505735/C3886-P135

>  <fragmenstein_runtime>  (70) 
3.1605770587921143

>  <fragmenstein_outcome>  (70) 
too moved

>  <fragmenstein_mode>  (70) 
expansion

>  <fragmenstein_error>  (70) 


$$$$
C3886-P180
     RDKit          3D

 36 38  0  0  0  0  0  0  0  0999 V2000
    1.7368   -3.4123   33.0565 C   0  0  0  0  0  0  0  0  0  0  0  0
    0.2217   -3.5719   32.8661 C   0  0  0  0  0  0  0  0  0  0  0  0
   -0.4140   -2.1432   32.6725 C   0  0  0  0  0  0  0  0  0  0  0  0
   -0.0877   -1.4505   31.3492 C   0  0  0  0  0  0  0  0  0  0  0  0
    1.0667   -0.6786   31.1810 C   0  0  0  0  0  0  0  0  0  0  0  0
    1.3723   -0.1125   29.9353 C   0  0  0  0  0  0  0  0  0  0  0  0
    0.5302   -0.3075   28.8410 C   0  0  0  0  0  0  0  0  0  0  0  0
   -0.6318   -1.0513   28.9949 C   0  0  0  0  0  0  0  0  0  0  0  0
   -0.9398   -1.6002   30.2418 C   0  0  0  0  0  0  0  0  0  0  0  0
   -0.4123   -4.3488   34.0751 C   0  0  0  0  0  0  0  0  0  0  0  0
   -0.0471   -5.8463   34.2708 C   0  0  0  0  0  0  0  0  0  0  0  0
   -0.4390   -6.7875   33.1676 C   0  0  0  0  0  0  0  0  0  0  0  0
   -1.2581   -7.8163   33.2348 N   0  0  0  0  0  0  0  0  0  0  0  0
   -1.3097   -8.4184   31.9931 N   0  0  0  0  0  0  0  0  0  0  0  0
   -0.5150   -7.7536   31.1956 C   0  0  0  0  0  0  0  0  0  0  0  0
    0.0357   -6.7231   31.8811 N   0  0  0  0  0  0  0  0  0  0  0  0
    0.6822   -5.5843   31.2933 C   0  0  0  0  0  0  0  0  0  0  0  0
   -0.1720   -4.4043   31.6615 C   0  0  0  0  0  0  0  0  0  0  0  0
   -1.3025   -4.3026   31.1741 O   0  0  0  0  0  0  0  0  0  0  0  0
    2.2144   -4.3346   33.4008 H   0  0  0  0  0  0  0  0  0  0  0  0
    2.2347   -3.1307   32.1228 H   0  0  0  0  0  0  0  0  0  0  0  0
    1.9604   -2.6478   33.8090 H   0  0  0  0  0  0  0  0  0  0  0  0
   -1.5078   -2.2105   32.7574 H   0  0  0  0  0  0  0  0  0  0  0  0
   -0.1079   -1.4873   33.4986 H   0  0  0  0  0  0  0  0  0  0  0  0
    1.7431   -0.5087   32.0151 H   0  0  0  0  0  0  0  0  0  0  0  0
    2.2728    0.4858   29.8197 H   0  0  0  0  0  0  0  0  0  0  0  0
    0.7699    0.1293   27.8757 H   0  0  0  0  0  0  0  0  0  0  0  0
   -1.3028   -1.2055   28.1509 H   0  0  0  0  0  0  0  0  0  0  0  0
   -1.8592   -2.1725   30.3338 H   0  0  0  0  0  0  0  0  0  0  0  0
   -0.1570   -3.8137   34.9991 H   0  0  0  0  0  0  0  0  0  0  0  0
   -1.4988   -4.2870   33.9793 H   0  0  0  0  0  0  0  0  0  0  0  0
   -0.5380   -6.1894   35.1908 H   0  0  0  0  0  0  0  0  0  0  0  0
    1.0295   -5.9452   34.4498 H   0  0  0  0  0  0  0  0  0  0  0  0
   -0.3409   -7.9591   30.1497 H   0  0  0  0  0  0  0  0  0  0  0  0
    0.7017   -5.6868   30.2039 H   0  0  0  0  0  0  0  0  0  0  0  0
    1.7086   -5.5376   31.6535 H   0  0  0  0  0  0  0  0  0  0  0  0
  1  2  1  0
  2  3  1  0
  3  4  1  0
  4  5  2  0
  5  6  1  0
  6  7  2  0
  7  8  1  0
  8  9  2  0
  2 10  1  0
 10 11  1  0
 11 12  1  0
 12 13  2  0
 13 14  1  0
 14 15  2  0
 15 16  1  0
 16 17  1  0
 17 18  1  0
 18 19  2  0
 18  2  1  0
  9  4  1  0
 16 12  1  0
  1 20  1  0
  1 21  1  0
  1 22  1  0
  3 23  1  0
  3 24  1  0
  5 25  1  0
  6 26  1  0
  7 27  1  0
  8 28  1  0
  9 29  1  0
 10 30  1  0
 10 31  1  0
 11 32  1  0
 11 33  1  0
 15 34  1  0
 17 35  1  0
 17 36  1  0
M  END
>  <Energy>  (71) 
38.035384012956918

>  <compound_id>  (71) 
3886

>  <target_id>  (71) 
1

>  <reference_id>  (71) 
180

>  <inspiration_ids>  (71) 
[135, 180]

>  <energy_score>  (71) 
-16.101970062565442

>  <distance_score>  (71) 
1.2245648248910528

>  <path>  (71) 
/opt/xchem-fragalysis-2/maxwin/BulkDock/SCRATCH/505735/C3886-P180/C3886-P180.minimised.mol

>  <scratch_subdir>  (71) 
/opt/xchem-fragalysis-2/maxwin/BulkDock/SCRATCH/505735/C3886-P180

>  <fragmenstein_runtime>  (71) 
3.1129322052001953

>  <fragmenstein_outcome>  (71) 
too moved

>  <fragmenstein_mode>  (71) 
expansion

>  <fragmenstein_error>  (71) 


$$$$
C3887-P135
     RDKit          3D

 37 40  0  0  0  0  0  0  0  0999 V2000
    0.2794   -1.8956   31.7714 C   0  0  0  0  0  0  0  0  0  0  0  0
    0.0925   -2.9520   30.6697 C   0  0  0  0  0  0  0  0  0  0  0  0
   -1.3160   -2.7826   30.0477 C   0  0  0  0  0  0  0  0  0  0  0  0
   -1.3758   -1.9745   28.7461 C   0  0  0  0  0  0  0  0  0  0  0  0
   -0.7024   -0.6728   28.8976 C   0  0  0  0  0  0  0  0  0  0  0  0
   -1.2491    0.4910   29.1674 N   0  0  0  0  0  0  0  0  0  0  0  0
   -0.2346    1.3908   29.3784 N   0  0  0  0  0  0  0  0  0  0  0  0
    0.9044    0.7627   29.2079 C   0  0  0  0  0  0  0  0  0  0  0  0
    0.6578   -0.5479   28.9590 N   0  0  0  0  0  0  0  0  0  0  0  0
    1.6412   -1.6032   28.9721 C   0  0  0  0  0  0  0  0  0  0  0  0
    1.1452   -2.9020   29.5550 C   0  0  0  0  0  0  0  0  0  0  0  0
    1.6329   -4.0270   29.1099 N   0  0  0  0  0  0  0  0  0  0  0  0
    0.9997   -5.4254   29.8659 S   0  0  0  0  0  4  0  0  0  0  0  0
    0.3048   -4.3879   31.1288 C   0  0  0  0  0  0  0  0  0  0  0  0
    0.0983   -4.9335   32.4411 C   0  0  0  0  0  0  0  0  0  0  0  0
    0.6941   -4.2899   33.5220 C   0  0  0  0  0  0  0  0  0  0  0  0
    0.2878   -4.6487   34.7774 C   0  0  0  0  0  0  0  0  0  0  0  0
   -0.6048   -5.7008   34.8993 C   0  0  0  0  0  0  0  0  0  0  0  0
   -1.1359   -5.8837   36.1250 O   0  0  0  0  0  0  0  0  0  0  0  0
   -1.0017   -6.4958   33.8337 C   0  0  0  0  0  0  0  0  0  0  0  0
   -0.6671   -6.0887   32.5652 C   0  0  0  0  0  0  0  0  0  0  0  0
    0.0012   -0.8891   31.4537 H   0  0  0  0  0  0  0  0  0  0  0  0
    1.3269   -1.8301   32.0835 H   0  0  0  0  0  0  0  0  0  0  0  0
   -0.3521   -2.0960   32.6423 H   0  0  0  0  0  0  0  0  0  0  0  0
   -2.0034   -2.3474   30.7851 H   0  0  0  0  0  0  0  0  0  0  0  0
   -1.7175   -3.7645   29.8186 H   0  0  0  0  0  0  0  0  0  0  0  0
   -0.9012   -2.5488   27.9508 H   0  0  0  0  0  0  0  0  0  0  0  0
   -2.4070   -1.8212   28.4273 H   0  0  0  0  0  0  0  0  0  0  0  0
    1.8892    1.1994   29.2932 H   0  0  0  0  0  0  0  0  0  0  0  0
    2.4931   -1.2697   29.5747 H   0  0  0  0  0  0  0  0  0  0  0  0
    1.9772   -1.7521   27.9428 H   0  0  0  0  0  0  0  0  0  0  0  0
    2.0969   -5.8707   30.5191 H   0  0  0  0  0  0  0  0  0  0  0  0
    1.4089   -3.4865   33.4134 H   0  0  0  0  0  0  0  0  0  0  0  0
    0.6168   -4.1032   35.6559 H   0  0  0  0  0  0  0  0  0  0  0  0
   -1.9620   -6.4029   36.0763 H   0  0  0  0  0  0  0  0  0  0  0  0
   -1.6418   -7.3588   33.9863 H   0  0  0  0  0  0  0  0  0  0  0  0
   -1.0517   -6.6219   31.7031 H   0  0  0  0  0  0  0  0  0  0  0  0
  1  2  1  0
  2  3  1  0
  3  4  1  0
  4  5  1  0
  5  6  2  0
  6  7  1  0
  7  8  2  0
  8  9  1  0
  9 10  1  0
 10 11  1  0
 11 12  2  0
 12 13  1  0
 13 14  2  0
 14 15  1  0
 15 16  2  0
 16 17  1  0
 17 18  2  0
 18 19  1  0
 18 20  1  0
 20 21  2  0
 11  2  1  0
 21 15  1  0
 14  2  1  0
  9  5  1  0
  1 22  1  0
  1 23  1  0
  1 24  1  0
  3 25  1  0
  3 26  1  0
  4 27  1  0
  4 28  1  0
  8 29  1  0
 10 30  1  0
 10 31  1  0
 13 32  1  0
 16 33  1  0
 17 34  1  0
 19 35  1  0
 20 36  1  0
 21 37  1  0
M  END
>  <Energy>  (72) 
51.299405093364506

>  <compound_id>  (72) 
3887

>  <target_id>  (72) 
1

>  <reference_id>  (72) 
135

>  <inspiration_ids>  (72) 
[135, 186]

>  <energy_score>  (72) 
-23.170450854455623

>  <distance_score>  (72) 
2.7912069906143198

>  <path>  (72) 
/opt/xchem-fragalysis-2/maxwin/BulkDock/SCRATCH/505735/C3887-P135/C3887-P135.minimised.mol

>  <scratch_subdir>  (72) 
/opt/xchem-fragalysis-2/maxwin/BulkDock/SCRATCH/505735/C3887-P135

>  <fragmenstein_runtime>  (72) 
7.241164684295654

>  <fragmenstein_outcome>  (72) 
too moved

>  <fragmenstein_mode>  (72) 
expansion

>  <fragmenstein_error>  (72) 


$$$$
C3887-P186
     RDKit          3D

 37 40  0  0  0  0  0  0  0  0999 V2000
   -0.0909   -2.0010   31.6770 C   0  0  0  0  0  0  0  0  0  0  0  0
   -0.0065   -3.0455   30.5462 C   0  0  0  0  0  0  0  0  0  0  0  0
   -1.2902   -2.9862   29.6854 C   0  0  0  0  0  0  0  0  0  0  0  0
   -1.2698   -2.0533   28.4630 C   0  0  0  0  0  0  0  0  0  0  0  0
   -0.6888   -0.7395   28.7927 C   0  0  0  0  0  0  0  0  0  0  0  0
   -1.3246    0.3774   29.0680 N   0  0  0  0  0  0  0  0  0  0  0  0
   -0.3910    1.3011   29.4675 N   0  0  0  0  0  0  0  0  0  0  0  0
    0.7924    0.7372   29.3955 C   0  0  0  0  0  0  0  0  0  0  0  0
    0.6462   -0.5625   29.0351 N   0  0  0  0  0  0  0  0  0  0  0  0
    1.6720   -1.5783   29.0891 C   0  0  0  0  0  0  0  0  0  0  0  0
    1.1896   -2.9127   29.6011 C   0  0  0  0  0  0  0  0  0  0  0  0
    1.8005   -4.0037   29.2268 N   0  0  0  0  0  0  0  0  0  0  0  0
    1.1128   -5.4529   29.8419 S   0  0  0  0  0  4  0  0  0  0  0  0
    0.2422   -4.4676   31.0320 C   0  0  0  0  0  0  0  0  0  0  0  0
    0.0431   -4.9862   32.3552 C   0  0  0  0  0  0  0  0  0  0  0  0
    0.6433   -4.3024   33.4112 C   0  0  0  0  0  0  0  0  0  0  0  0
    0.2334   -4.6096   34.6790 C   0  0  0  0  0  0  0  0  0  0  0  0
   -0.6609   -5.6558   34.8394 C   0  0  0  0  0  0  0  0  0  0  0  0
   -1.1918   -5.7923   36.0718 O   0  0  0  0  0  0  0  0  0  0  0  0
   -1.0536   -6.4921   33.8027 C   0  0  0  0  0  0  0  0  0  0  0  0
   -0.7176   -6.1363   32.5180 C   0  0  0  0  0  0  0  0  0  0  0  0
   -0.7522   -2.3270   32.4857 H   0  0  0  0  0  0  0  0  0  0  0  0
   -0.5132   -1.0481   31.3541 H   0  0  0  0  0  0  0  0  0  0  0  0
    0.8992   -1.7693   32.0820 H   0  0  0  0  0  0  0  0  0  0  0  0
   -2.1424   -2.7356   30.3291 H   0  0  0  0  0  0  0  0  0  0  0  0
   -1.4913   -3.9800   29.2875 H   0  0  0  0  0  0  0  0  0  0  0  0
   -0.7016   -2.5165   27.6464 H   0  0  0  0  0  0  0  0  0  0  0  0
   -2.2831   -1.9139   28.0773 H   0  0  0  0  0  0  0  0  0  0  0  0
    1.7360    1.2108   29.6266 H   0  0  0  0  0  0  0  0  0  0  0  0
    2.4692   -1.2279   29.7531 H   0  0  0  0  0  0  0  0  0  0  0  0
    2.0732   -1.6876   28.0764 H   0  0  0  0  0  0  0  0  0  0  0  0
    2.1290   -5.9029   30.6123 H   0  0  0  0  0  0  0  0  0  0  0  0
    1.3516   -3.4981   33.2623 H   0  0  0  0  0  0  0  0  0  0  0  0
    0.5600   -4.0292   35.5355 H   0  0  0  0  0  0  0  0  0  0  0  0
   -1.9744   -6.3761   36.0603 H   0  0  0  0  0  0  0  0  0  0  0  0
   -1.6842   -7.3557   33.9874 H   0  0  0  0  0  0  0  0  0  0  0  0
   -1.0932   -6.7024   31.6731 H   0  0  0  0  0  0  0  0  0  0  0  0
  1  2  1  0
  2  3  1  0
  3  4  1  0
  4  5  1  0
  5  6  2  0
  6  7  1  0
  7  8  2  0
  8  9  1  0
  9 10  1  0
 10 11  1  0
 11 12  2  0
 12 13  1  0
 13 14  2  0
 14 15  1  0
 15 16  2  0
 16 17  1  0
 17 18  2  0
 18 19  1  0
 18 20  1  0
 20 21  2  0
 11  2  1  0
 21 15  1  0
 14  2  1  0
  9  5  1  0
  1 22  1  0
  1 23  1  0
  1 24  1  0
  3 25  1  0
  3 26  1  0
  4 27  1  0
  4 28  1  0
  8 29  1  0
 10 30  1  0
 10 31  1  0
 13 32  1  0
 16 33  1  0
 17 34  1  0
 19 35  1  0
 20 36  1  0
 21 37  1  0
M  END
>  <Energy>  (73) 
53.538797084589802

>  <compound_id>  (73) 
3887

>  <target_id>  (73) 
1

>  <reference_id>  (73) 
186

>  <inspiration_ids>  (73) 
[135, 186]

>  <energy_score>  (73) 
-20.931058863232437

>  <distance_score>  (73) 
2.7802916592150853

>  <path>  (73) 
/opt/xchem-fragalysis-2/maxwin/BulkDock/SCRATCH/505735/C3887-P186/C3887-P186.minimised.mol

>  <scratch_subdir>  (73) 
/opt/xchem-fragalysis-2/maxwin/BulkDock/SCRATCH/505735/C3887-P186

>  <fragmenstein_runtime>  (73) 
12.641276359558105

>  <fragmenstein_outcome>  (73) 
too moved

>  <fragmenstein_mode>  (73) 
expansion

>  <fragmenstein_error>  (73) 


$$$$
C3887-P135
     RDKit          2D

  0  0  0  0  0  0  0  0  0  0999 V2000
M  END
>  <compound_id>  (74) 
3887

>  <target_id>  (74) 
1

>  <reference_id>  (74) 
135

>  <inspiration_ids>  (74) 
[135, 187]

>  <energy_score>  (74) 
nan

>  <distance_score>  (74) 
nan

>  <path>  (74) 
/opt/xchem-fragalysis-2/maxwin/BulkDock/SCRATCH/505735/C3887-P135/C3887-P135.minimised.mol

>  <scratch_subdir>  (74) 
/opt/xchem-fragalysis-2/maxwin/BulkDock/SCRATCH/505735/C3887-P135

>  <fragmenstein_runtime>  (74) 
0.5716598033905029

>  <fragmenstein_outcome>  (74) 
crashed

>  <fragmenstein_mode>  (74) 
expansion

>  <fragmenstein_error>  (74) 
PoisonError: None has poison atoms [10, 11, 10, 11]

$$$$
C3919-P135
     RDKit          3D

 42 45  0  0  0  0  0  0  0  0999 V2000
   -1.8686    0.8242   27.0753 C   0  0  0  0  0  0  0  0  0  0  0  0
   -1.0132    0.4731   28.2543 C   0  0  0  0  0  0  0  0  0  0  0  0
   -0.0572    1.3987   28.6721 C   0  0  0  0  0  0  0  0  0  0  0  0
    0.7366    1.1376   29.7796 C   0  0  0  0  0  0  0  0  0  0  0  0
    0.5630   -0.0335   30.5075 C   0  0  0  0  0  0  0  0  0  0  0  0
   -0.4150   -0.9490   30.1416 C   0  0  0  0  0  0  0  0  0  0  0  0
   -0.7581   -2.0021   31.1077 C   0  0  0  0  0  0  0  0  0  0  0  0
   -2.4753   -2.2854   31.5221 S   0  0  0  0  0  4  0  0  0  0  0  0
   -2.0794   -3.6680   32.4235 N   0  0  0  0  0  0  0  0  0  0  0  0
   -0.8171   -3.7925   32.6651 C   0  0  0  0  0  0  0  0  0  0  0  0
   -0.2889   -4.9642   33.4286 C   0  0  0  0  0  0  0  0  0  0  0  0
   -0.3123   -6.0940   32.5389 N   0  0  0  0  0  0  0  0  0  0  0  0
   -0.8795   -7.3120   32.7822 C   0  0  0  0  0  0  0  0  0  0  0  0
   -1.4263   -7.7331   34.0874 C   0  0  0  0  0  0  0  0  0  0  0  0
   -0.8582   -8.0125   31.6691 N   0  0  0  0  0  0  0  0  0  0  0  0
   -0.2661   -7.2444   30.6922 N   0  0  0  0  0  0  0  0  0  0  0  0
    0.0616   -6.0764   31.2158 C   0  0  0  0  0  0  0  0  0  0  0  0
    0.6333   -4.8971   30.4615 C   0  0  0  0  0  0  0  0  0  0  0  0
    1.1897   -3.6893   31.2667 C   0  0  0  0  0  0  0  0  0  0  0  0
    0.1385   -2.8358   32.0092 C   0  0  0  0  0  0  0  0  0  0  0  0
    0.7205   -1.9894   33.1475 C   0  0  0  0  0  0  0  0  0  0  0  0
   -1.1937   -0.7091   28.9944 C   0  0  0  0  0  0  0  0  0  0  0  0
   -1.3245    1.4740   26.3844 H   0  0  0  0  0  0  0  0  0  0  0  0
   -2.7550    1.3763   27.3939 H   0  0  0  0  0  0  0  0  0  0  0  0
   -2.1609   -0.0735   26.5302 H   0  0  0  0  0  0  0  0  0  0  0  0
    0.0732    2.3357   28.1330 H   0  0  0  0  0  0  0  0  0  0  0  0
    1.4810    1.8676   30.0893 H   0  0  0  0  0  0  0  0  0  0  0  0
    1.1731   -0.1554   31.3906 H   0  0  0  0  0  0  0  0  0  0  0  0
   -2.8316   -2.8598   30.3578 H   0  0  0  0  0  0  0  0  0  0  0  0
    0.7405   -4.8228   33.7653 H   0  0  0  0  0  0  0  0  0  0  0  0
   -0.9112   -5.1324   34.3056 H   0  0  0  0  0  0  0  0  0  0  0  0
   -2.2219   -8.4627   33.9338 H   0  0  0  0  0  0  0  0  0  0  0  0
   -0.6371   -8.1630   34.7086 H   0  0  0  0  0  0  0  0  0  0  0  0
   -1.8709   -6.9165   34.6546 H   0  0  0  0  0  0  0  0  0  0  0  0
    1.4550   -5.2856   29.8458 H   0  0  0  0  0  0  0  0  0  0  0  0
   -0.1316   -4.5382   29.7620 H   0  0  0  0  0  0  0  0  0  0  0  0
    1.9473   -4.0591   31.9699 H   0  0  0  0  0  0  0  0  0  0  0  0
    1.7277   -3.0424   30.5617 H   0  0  0  0  0  0  0  0  0  0  0  0
    0.0563   -1.1619   33.4233 H   0  0  0  0  0  0  0  0  0  0  0  0
    1.6903   -1.5654   32.8679 H   0  0  0  0  0  0  0  0  0  0  0  0
    0.8973   -2.5685   34.0604 H   0  0  0  0  0  0  0  0  0  0  0  0
   -1.9582   -1.4160   28.6798 H   0  0  0  0  0  0  0  0  0  0  0  0
  1  2  1  0
  2  3  2  0
  3  4  1  0
  4  5  2  0
  5  6  1  0
  6  7  1  0
  7  8  2  0
  8  9  1  0
  9 10  2  0
 10 11  1  0
 11 12  1  0
 12 13  1  0
 13 14  1  0
 13 15  2  0
 15 16  1  0
 16 17  2  0
 17 18  1  0
 18 19  1  0
 19 20  1  0
 20 21  1  0
  6 22  2  0
 22  2  1  0
 20  7  1  0
 20 10  1  0
 17 12  1  0
  1 23  1  0
  1 24  1  0
  1 25  1  0
  3 26  1  0
  4 27  1  0
  5 28  1  0
  8 29  1  0
 11 30  1  0
 11 31  1  0
 14 32  1  0
 14 33  1  0
 14 34  1  0
 18 35  1  0
 18 36  1  0
 19 37  1  0
 19 38  1  0
 21 39  1  0
 21 40  1  0
 21 41  1  0
 22 42  1  0
M  END
>  <Energy>  (75) 
61.549358811017804

>  <compound_id>  (75) 
3919

>  <target_id>  (75) 
1

>  <reference_id>  (75) 
135

>  <inspiration_ids>  (75) 
[135, 189]

>  <energy_score>  (75) 
-28.049316270826438

>  <distance_score>  (75) 
1.54779389104924

>  <path>  (75) 
/opt/xchem-fragalysis-2/maxwin/BulkDock/SCRATCH/505735/C3919-P135/C3919-P135.minimised.mol

>  <scratch_subdir>  (75) 
/opt/xchem-fragalysis-2/maxwin/BulkDock/SCRATCH/505735/C3919-P135

>  <fragmenstein_runtime>  (75) 
19.08336853981018

>  <fragmenstein_outcome>  (75) 
too moved

>  <fragmenstein_mode>  (75) 
expansion

>  <fragmenstein_error>  (75) 


$$$$
C3919-P189
     RDKit          3D

 42 45  0  0  0  0  0  0  0  0999 V2000
   -2.4541    0.6641   27.0314 C   0  0  0  0  0  0  0  0  0  0  0  0
   -1.4482    0.3257   28.0878 C   0  0  0  0  0  0  0  0  0  0  0  0
   -0.3972    1.2083   28.3368 C   0  0  0  0  0  0  0  0  0  0  0  0
    0.5193    0.9421   29.3479 C   0  0  0  0  0  0  0  0  0  0  0  0
    0.3722   -0.1827   30.1529 C   0  0  0  0  0  0  0  0  0  0  0  0
   -0.7000   -1.0420   29.9547 C   0  0  0  0  0  0  0  0  0  0  0  0
   -1.0192   -2.0173   31.0024 C   0  0  0  0  0  0  0  0  0  0  0  0
   -2.7236   -2.2371   31.5255 S   0  0  0  0  0  4  0  0  0  0  0  0
   -2.2963   -3.6498   32.3754 N   0  0  0  0  0  0  0  0  0  0  0  0
   -1.0287   -3.7517   32.6128 C   0  0  0  0  0  0  0  0  0  0  0  0
   -0.4693   -4.8831   33.4152 C   0  0  0  0  0  0  0  0  0  0  0  0
   -0.4247   -6.0472   32.5734 N   0  0  0  0  0  0  0  0  0  0  0  0
   -0.8791   -7.2981   32.8813 C   0  0  0  0  0  0  0  0  0  0  0  0
   -1.3674   -7.7140   34.2138 C   0  0  0  0  0  0  0  0  0  0  0  0
   -0.8047   -8.0438   31.7998 N   0  0  0  0  0  0  0  0  0  0  0  0
   -0.2747   -7.2780   30.7859 N   0  0  0  0  0  0  0  0  0  0  0  0
   -0.0357   -6.0669   31.2554 C   0  0  0  0  0  0  0  0  0  0  0  0
    0.4747   -4.8913   30.4558 C   0  0  0  0  0  0  0  0  0  0  0  0
    0.9896   -3.6415   31.2200 C   0  0  0  0  0  0  0  0  0  0  0  0
   -0.0930   -2.7950   31.9256 C   0  0  0  0  0  0  0  0  0  0  0  0
    0.4665   -1.8825   33.0265 C   0  0  0  0  0  0  0  0  0  0  0  0
   -1.5893   -0.8121   28.8935 C   0  0  0  0  0  0  0  0  0  0  0  0
   -3.1514    1.4136   27.4113 H   0  0  0  0  0  0  0  0  0  0  0  0
   -3.0150   -0.2203   26.7151 H   0  0  0  0  0  0  0  0  0  0  0  0
   -1.9677    1.0928   26.1555 H   0  0  0  0  0  0  0  0  0  0  0  0
   -0.2886    2.1116   27.7395 H   0  0  0  0  0  0  0  0  0  0  0  0
    1.3393    1.6345   29.5231 H   0  0  0  0  0  0  0  0  0  0  0  0
    1.0808   -0.3157   30.9582 H   0  0  0  0  0  0  0  0  0  0  0  0
   -3.2513   -2.7299   30.3853 H   0  0  0  0  0  0  0  0  0  0  0  0
    0.5459   -4.6860   33.7675 H   0  0  0  0  0  0  0  0  0  0  0  0
   -1.0994   -5.0459   34.2865 H   0  0  0  0  0  0  0  0  0  0  0  0
   -2.1941   -8.4165   34.1001 H   0  0  0  0  0  0  0  0  0  0  0  0
   -0.5597   -8.1838   34.7810 H   0  0  0  0  0  0  0  0  0  0  0  0
   -1.7527   -6.8926   34.8181 H   0  0  0  0  0  0  0  0  0  0  0  0
    1.3056   -5.2645   29.8429 H   0  0  0  0  0  0  0  0  0  0  0  0
   -0.3109   -4.5852   29.7547 H   0  0  0  0  0  0  0  0  0  0  0  0
    1.7529   -3.9627   31.9407 H   0  0  0  0  0  0  0  0  0  0  0  0
    1.5133   -3.0052   30.4953 H   0  0  0  0  0  0  0  0  0  0  0  0
   -0.2222   -1.0648   33.2694 H   0  0  0  0  0  0  0  0  0  0  0  0
    1.4189   -1.4351   32.7259 H   0  0  0  0  0  0  0  0  0  0  0  0
    0.6636   -2.4190   33.9609 H   0  0  0  0  0  0  0  0  0  0  0  0
   -2.4164   -1.4912   28.7002 H   0  0  0  0  0  0  0  0  0  0  0  0
  1  2  1  0
  2  3  2  0
  3  4  1  0
  4  5  2  0
  5  6  1  0
  6  7  1  0
  7  8  2  0
  8  9  1  0
  9 10  2  0
 10 11  1  0
 11 12  1  0
 12 13  1  0
 13 14  1  0
 13 15  2  0
 15 16  1  0
 16 17  2  0
 17 18  1  0
 18 19  1  0
 19 20  1  0
 20 21  1  0
  6 22  2  0
 22  2  1  0
 20  7  1  0
 20 10  1  0
 17 12  1  0
  1 23  1  0
  1 24  1  0
  1 25  1  0
  3 26  1  0
  4 27  1  0
  5 28  1  0
  8 29  1  0
 11 30  1  0
 11 31  1  0
 14 32  1  0
 14 33  1  0
 14 34  1  0
 18 35  1  0
 18 36  1  0
 19 37  1  0
 19 38  1  0
 21 39  1  0
 21 40  1  0
 21 41  1  0
 22 42  1  0
M  END
>  <Energy>  (76) 
60.138529367268703

>  <compound_id>  (76) 
3919

>  <target_id>  (76) 
1

>  <reference_id>  (76) 
189

>  <inspiration_ids>  (76) 
[135, 189]

>  <energy_score>  (76) 
-29.46014571457721

>  <distance_score>  (76) 
1.4691586267939203

>  <path>  (76) 
/opt/xchem-fragalysis-2/maxwin/BulkDock/SCRATCH/505735/C3919-P189/C3919-P189.minimised.mol

>  <scratch_subdir>  (76) 
/opt/xchem-fragalysis-2/maxwin/BulkDock/SCRATCH/505735/C3919-P189

>  <fragmenstein_runtime>  (76) 
19.865065574645996

>  <fragmenstein_outcome>  (76) 
too moved

>  <fragmenstein_mode>  (76) 
expansion

>  <fragmenstein_error>  (76) 


$$$$
C3919-P135
     RDKit          2D

  0  0  0  0  0  0  0  0  0  0999 V2000
M  END
>  <compound_id>  (77) 
3919

>  <target_id>  (77) 
1

>  <reference_id>  (77) 
135

>  <inspiration_ids>  (77) 
[135, 190]

>  <energy_score>  (77) 
nan

>  <distance_score>  (77) 
nan

>  <path>  (77) 
/opt/xchem-fragalysis-2/maxwin/BulkDock/SCRATCH/505735/C3919-P135/C3919-P135.minimised.mol

>  <scratch_subdir>  (77) 
/opt/xchem-fragalysis-2/maxwin/BulkDock/SCRATCH/505735/C3919-P135

>  <fragmenstein_runtime>  (77) 
0.6441643238067627

>  <fragmenstein_outcome>  (77) 
too distant

>  <fragmenstein_mode>  (77) 
expansion

>  <fragmenstein_error>  (77) 
DistanceError: hit0+hit1

$$$$
C3894-P135
     RDKit          3D

 38 41  0  0  0  0  0  0  0  0999 V2000
   -0.6046   -3.7606   28.5105 C   0  0  0  0  0  0  0  0  0  0  0  0
   -0.2556   -3.5965   29.9700 C   0  0  0  0  0  0  0  0  0  0  0  0
   -1.4865   -2.9793   30.6162 C   0  0  0  0  0  0  0  0  0  0  0  0
   -1.2639   -2.1119   31.8141 C   0  0  0  0  0  0  0  0  0  0  0  0
   -0.7205   -0.7986   31.4819 C   0  0  0  0  0  0  0  0  0  0  0  0
   -1.0945    0.2924   32.1059 N   0  0  0  0  0  0  0  0  0  0  0  0
   -0.3663    1.3243   31.6063 N   0  0  0  0  0  0  0  0  0  0  0  0
    0.3870    0.8591   30.6395 C   0  0  0  0  0  0  0  0  0  0  0  0
    0.2490   -0.4968   30.5711 N   0  0  0  0  0  0  0  0  0  0  0  0
    1.0428   -1.3276   29.6863 C   0  0  0  0  0  0  0  0  0  0  0  0
    1.0294   -2.8130   29.9118 C   0  0  0  0  0  0  0  0  0  0  0  0
    2.1305   -3.5215   29.8600 N   0  0  0  0  0  0  0  0  0  0  0  0
    1.8786   -5.2580   29.8720 S   0  0  0  0  0  4  0  0  0  0  0  0
    0.2530   -4.9210   30.5412 C   0  0  0  0  0  0  0  0  0  0  0  0
    0.0183   -5.3746   31.8844 C   0  0  0  0  0  0  0  0  0  0  0  0
    0.6293   -4.6053   32.8815 C   0  0  0  0  0  0  0  0  0  0  0  0
    0.2709   -4.8312   34.1823 C   0  0  0  0  0  0  0  0  0  0  0  0
   -0.6358   -5.8487   34.4527 C   0  0  0  0  0  0  0  0  0  0  0  0
   -1.0311   -6.0555   35.7631 N   0  0  0  0  0  0  0  0  0  0  0  0
   -1.0135   -6.7627   33.4618 C   0  0  0  0  0  0  0  0  0  0  0  0
   -0.7268   -6.5044   32.1384 C   0  0  0  0  0  0  0  0  0  0  0  0
   -1.0728   -2.8593   28.1014 H   0  0  0  0  0  0  0  0  0  0  0  0
   -1.2752   -4.5993   28.4006 H   0  0  0  0  0  0  0  0  0  0  0  0
    0.2797   -3.9439   27.9045 H   0  0  0  0  0  0  0  0  0  0  0  0
   -2.0721   -2.4024   29.8906 H   0  0  0  0  0  0  0  0  0  0  0  0
   -2.1378   -3.7865   30.9481 H   0  0  0  0  0  0  0  0  0  0  0  0
   -2.2379   -1.9621   32.3008 H   0  0  0  0  0  0  0  0  0  0  0  0
   -0.6385   -2.5647   32.5757 H   0  0  0  0  0  0  0  0  0  0  0  0
    1.0544    1.4377   30.0153 H   0  0  0  0  0  0  0  0  0  0  0  0
    0.6895   -1.1280   28.6684 H   0  0  0  0  0  0  0  0  0  0  0  0
    2.0780   -0.9743   29.7632 H   0  0  0  0  0  0  0  0  0  0  0  0
    1.5799   -5.4553   28.5659 H   0  0  0  0  0  0  0  0  0  0  0  0
    1.3181   -3.7992   32.6476 H   0  0  0  0  0  0  0  0  0  0  0  0
    0.6623   -4.2059   34.9781 H   0  0  0  0  0  0  0  0  0  0  0  0
   -1.0926   -5.1997   36.3050 H   0  0  0  0  0  0  0  0  0  0  0  0
   -1.8950   -6.5882   35.8767 H   0  0  0  0  0  0  0  0  0  0  0  0
   -1.6090   -7.6344   33.7253 H   0  0  0  0  0  0  0  0  0  0  0  0
   -1.0984   -7.1448   31.3485 H   0  0  0  0  0  0  0  0  0  0  0  0
  1  2  1  0
  2  3  1  0
  3  4  1  0
  4  5  1  0
  5  6  2  0
  6  7  1  0
  7  8  2  0
  8  9  1  0
  9 10  1  0
 10 11  1  0
 11 12  2  0
 12 13  1  0
 13 14  2  0
 14 15  1  0
 15 16  2  0
 16 17  1  0
 17 18  2  0
 18 19  1  0
 18 20  1  0
 20 21  2  0
 11  2  1  0
 21 15  1  0
 14  2  1  0
  9  5  1  0
  1 22  1  0
  1 23  1  0
  1 24  1  0
  3 25  1  0
  3 26  1  0
  4 27  1  0
  4 28  1  0
  8 29  1  0
 10 30  1  0
 10 31  1  0
 13 32  1  0
 16 33  1  0
 17 34  1  0
 19 35  1  0
 19 36  1  0
 20 37  1  0
 21 38  1  0
M  END
>  <Energy>  (78) 
67.250373403856116

>  <compound_id>  (78) 
3894

>  <target_id>  (78) 
1

>  <reference_id>  (78) 
135

>  <inspiration_ids>  (78) 
[135, 196]

>  <energy_score>  (78) 
-25.12109247975161

>  <distance_score>  (78) 
3.102055530063127

>  <path>  (78) 
/opt/xchem-fragalysis-2/maxwin/BulkDock/SCRATCH/505735/C3894-P135/C3894-P135.minimised.mol

>  <scratch_subdir>  (78) 
/opt/xchem-fragalysis-2/maxwin/BulkDock/SCRATCH/505735/C3894-P135

>  <fragmenstein_runtime>  (78) 
3.3659508228302

>  <fragmenstein_outcome>  (78) 
too moved

>  <fragmenstein_mode>  (78) 
expansion

>  <fragmenstein_error>  (78) 


$$$$
C3894-P196
     RDKit          3D

 38 41  0  0  0  0  0  0  0  0999 V2000
    0.1740   -3.2579   27.6344 C   0  0  0  0  0  0  0  0  0  0  0  0
    0.0167   -3.2786   29.1735 C   0  0  0  0  0  0  0  0  0  0  0  0
   -1.3121   -2.5669   29.4881 C   0  0  0  0  0  0  0  0  0  0  0  0
   -1.3408   -1.0652   29.2847 C   0  0  0  0  0  0  0  0  0  0  0  0
   -0.6948   -0.4844   30.4627 C   0  0  0  0  0  0  0  0  0  0  0  0
   -1.2765   -0.0557   31.5599 N   0  0  0  0  0  0  0  0  0  0  0  0
   -0.2858    0.2563   32.4533 N   0  0  0  0  0  0  0  0  0  0  0  0
    0.8667   -0.0101   31.8778 C   0  0  0  0  0  0  0  0  0  0  0  0
    0.6502   -0.5541   30.6567 N   0  0  0  0  0  0  0  0  0  0  0  0
    1.6071   -1.2127   29.7911 C   0  0  0  0  0  0  0  0  0  0  0  0
    1.3568   -2.7023   29.6621 C   0  0  0  0  0  0  0  0  0  0  0  0
    2.3203   -3.5680   29.8730 N   0  0  0  0  0  0  0  0  0  0  0  0
    1.8501   -5.2390   29.6200 S   0  0  0  0  0  4  0  0  0  0  0  0
    0.1565   -4.6561   29.8773 C   0  0  0  0  0  0  0  0  0  0  0  0
   -0.3516   -5.0157   31.2044 C   0  0  0  0  0  0  0  0  0  0  0  0
   -0.2659   -4.0379   32.2040 C   0  0  0  0  0  0  0  0  0  0  0  0
   -0.5298   -4.3816   33.5061 C   0  0  0  0  0  0  0  0  0  0  0  0
   -0.8652   -5.6976   33.8035 C   0  0  0  0  0  0  0  0  0  0  0  0
   -1.0956   -6.0379   35.1290 N   0  0  0  0  0  0  0  0  0  0  0  0
   -0.8100   -6.6939   32.8275 C   0  0  0  0  0  0  0  0  0  0  0  0
   -0.5732   -6.3543   31.5082 C   0  0  0  0  0  0  0  0  0  0  0  0
    0.3046   -2.2352   27.2612 H   0  0  0  0  0  0  0  0  0  0  0  0
   -0.7078   -3.6567   27.1325 H   0  0  0  0  0  0  0  0  0  0  0  0
    1.0474   -3.8015   27.2678 H   0  0  0  0  0  0  0  0  0  0  0  0
   -1.6815   -2.7967   30.4918 H   0  0  0  0  0  0  0  0  0  0  0  0
   -2.0779   -2.9803   28.8483 H   0  0  0  0  0  0  0  0  0  0  0  0
   -0.8706   -0.7436   28.3518 H   0  0  0  0  0  0  0  0  0  0  0  0
   -2.3682   -0.7063   29.2470 H   0  0  0  0  0  0  0  0  0  0  0  0
    1.8432    0.1243   32.3224 H   0  0  0  0  0  0  0  0  0  0  0  0
    1.5521   -0.7394   28.8062 H   0  0  0  0  0  0  0  0  0  0  0  0
    2.6085   -1.0415   30.1999 H   0  0  0  0  0  0  0  0  0  0  0  0
    1.9027   -5.3016   28.2694 H   0  0  0  0  0  0  0  0  0  0  0  0
    0.0259   -3.0161   32.0049 H   0  0  0  0  0  0  0  0  0  0  0  0
   -0.4880   -3.6285   34.2877 H   0  0  0  0  0  0  0  0  0  0  0  0
   -1.5821   -6.9211   35.2639 H   0  0  0  0  0  0  0  0  0  0  0  0
   -1.5834   -5.2944   35.6285 H   0  0  0  0  0  0  0  0  0  0  0  0
   -0.9860   -7.7333   33.0943 H   0  0  0  0  0  0  0  0  0  0  0  0
   -0.5245   -7.1230   30.7439 H   0  0  0  0  0  0  0  0  0  0  0  0
  1  2  1  0
  2  3  1  0
  3  4  1  0
  4  5  1  0
  5  6  2  0
  6  7  1  0
  7  8  2  0
  8  9  1  0
  9 10  1  0
 10 11  1  0
 11 12  2  0
 12 13  1  0
 13 14  2  0
 14 15  1  0
 15 16  2  0
 16 17  1  0
 17 18  2  0
 18 19  1  0
 18 20  1  0
 20 21  2  0
 11  2  1  0
 21 15  1  0
 14  2  1  0
  9  5  1  0
  1 22  1  0
  1 23  1  0
  1 24  1  0
  3 25  1  0
  3 26  1  0
  4 27  1  0
  4 28  1  0
  8 29  1  0
 10 30  1  0
 10 31  1  0
 13 32  1  0
 16 33  1  0
 17 34  1  0
 19 35  1  0
 19 36  1  0
 20 37  1  0
 21 38  1  0
M  END
>  <Energy>  (79) 
69.71661725696795

>  <compound_id>  (79) 
3894

>  <target_id>  (79) 
1

>  <reference_id>  (79) 
196

>  <inspiration_ids>  (79) 
[135, 196]

>  <energy_score>  (79) 
-22.65484862663891

>  <distance_score>  (79) 
2.868599159884341

>  <path>  (79) 
/opt/xchem-fragalysis-2/maxwin/BulkDock/SCRATCH/505735/C3894-P196/C3894-P196.minimised.mol

>  <scratch_subdir>  (79) 
/opt/xchem-fragalysis-2/maxwin/BulkDock/SCRATCH/505735/C3894-P196

>  <fragmenstein_runtime>  (79) 
3.5276436805725098

>  <fragmenstein_outcome>  (79) 
too moved

>  <fragmenstein_mode>  (79) 
expansion

>  <fragmenstein_error>  (79) 


$$$$
C3894-P135
     RDKit          3D

 38 41  0  0  0  0  0  0  0  0999 V2000
   -0.6012   -3.7621   28.5235 C   0  0  0  0  0  0  0  0  0  0  0  0
   -0.2340   -3.6309   29.9828 C   0  0  0  0  0  0  0  0  0  0  0  0
   -1.4504   -3.0133   30.6561 C   0  0  0  0  0  0  0  0  0  0  0  0
   -1.2015   -2.1708   31.8673 C   0  0  0  0  0  0  0  0  0  0  0  0
   -0.6508   -0.8569   31.5487 C   0  0  0  0  0  0  0  0  0  0  0  0
   -1.0238    0.2313   32.1783 N   0  0  0  0  0  0  0  0  0  0  0  0
   -0.3047    1.2685   31.6756 N   0  0  0  0  0  0  0  0  0  0  0  0
    0.4561    0.8049   30.7134 C   0  0  0  0  0  0  0  0  0  0  0  0
    0.3173   -0.5509   30.6377 N   0  0  0  0  0  0  0  0  0  0  0  0
    1.0938   -1.3742   29.7316 C   0  0  0  0  0  0  0  0  0  0  0  0
    1.0611   -2.8628   29.9265 C   0  0  0  0  0  0  0  0  0  0  0  0
    2.1530   -3.5830   29.8497 N   0  0  0  0  0  0  0  0  0  0  0  0
    1.8781   -5.3150   29.8330 S   0  0  0  0  0  4  0  0  0  0  0  0
    0.2666   -4.9696   30.5306 C   0  0  0  0  0  0  0  0  0  0  0  0
    0.0469   -5.4304   31.8748 C   0  0  0  0  0  0  0  0  0  0  0  0
    0.6869   -4.6793   32.8681 C   0  0  0  0  0  0  0  0  0  0  0  0
    0.3201   -4.8851   34.1704 C   0  0  0  0  0  0  0  0  0  0  0  0
   -0.6217   -5.8685   34.4460 C   0  0  0  0  0  0  0  0  0  0  0  0
   -1.0293   -6.0505   35.7559 N   0  0  0  0  0  0  0  0  0  0  0  0
   -1.0258   -6.7766   33.4604 C   0  0  0  0  0  0  0  0  0  0  0  0
   -0.7337   -6.5339   32.1351 C   0  0  0  0  0  0  0  0  0  0  0  0
   -1.0692   -2.8508   28.1360 H   0  0  0  0  0  0  0  0  0  0  0  0
   -1.2774   -4.5948   28.4034 H   0  0  0  0  0  0  0  0  0  0  0  0
    0.2754   -3.9371   27.9043 H   0  0  0  0  0  0  0  0  0  0  0  0
   -2.1074   -3.8197   30.9790 H   0  0  0  0  0  0  0  0  0  0  0  0
   -2.0402   -2.4164   29.9497 H   0  0  0  0  0  0  0  0  0  0  0  0
   -0.5687   -2.6403   32.6114 H   0  0  0  0  0  0  0  0  0  0  0  0
   -2.1667   -2.0210   32.3712 H   0  0  0  0  0  0  0  0  0  0  0  0
    1.1232    1.3858   30.0911 H   0  0  0  0  0  0  0  0  0  0  0  0
    0.7375   -1.1496   28.7200 H   0  0  0  0  0  0  0  0  0  0  0  0
    2.1341   -1.0363   29.8095 H   0  0  0  0  0  0  0  0  0  0  0  0
    1.5576   -5.4844   28.5280 H   0  0  0  0  0  0  0  0  0  0  0  0
    1.3977   -3.8940   32.6297 H   0  0  0  0  0  0  0  0  0  0  0  0
    0.7307   -4.2677   34.9627 H   0  0  0  0  0  0  0  0  0  0  0  0
   -1.0708   -5.1889   36.2903 H   0  0  0  0  0  0  0  0  0  0  0  0
   -1.9048   -6.5635   35.8716 H   0  0  0  0  0  0  0  0  0  0  0  0
   -1.6483   -7.6280   33.7283 H   0  0  0  0  0  0  0  0  0  0  0  0
   -1.1318   -7.1632   31.3491 H   0  0  0  0  0  0  0  0  0  0  0  0
  1  2  1  0
  2  3  1  0
  3  4  1  0
  4  5  1  0
  5  6  2  0
  6  7  1  0
  7  8  2  0
  8  9  1  0
  9 10  1  0
 10 11  1  0
 11 12  2  0
 12 13  1  0
 13 14  2  0
 14 15  1  0
 15 16  2  0
 16 17  1  0
 17 18  2  0
 18 19  1  0
 18 20  1  0
 20 21  2  0
 11  2  1  0
 21 15  1  0
 14  2  1  0
  9  5  1  0
  1 22  1  0
  1 23  1  0
  1 24  1  0
  3 25  1  0
  3 26  1  0
  4 27  1  0
  4 28  1  0
  8 29  1  0
 10 30  1  0
 10 31  1  0
 13 32  1  0
 16 33  1  0
 17 34  1  0
 19 35  1  0
 19 36  1  0
 20 37  1  0
 21 38  1  0
M  END
>  <Energy>  (80) 
67.603755813644085

>  <compound_id>  (80) 
3894

>  <target_id>  (80) 
1

>  <reference_id>  (80) 
135

>  <inspiration_ids>  (80) 
[135, 197]

>  <energy_score>  (80) 
-24.767710069962618

>  <distance_score>  (80) 
3.111983211919671

>  <path>  (80) 
/opt/xchem-fragalysis-2/maxwin/BulkDock/SCRATCH/505735/C3894-P135/C3894-P135.minimised.mol

>  <scratch_subdir>  (80) 
/opt/xchem-fragalysis-2/maxwin/BulkDock/SCRATCH/505735/C3894-P135

>  <fragmenstein_runtime>  (80) 
3.4451534748077393

>  <fragmenstein_outcome>  (80) 
too moved

>  <fragmenstein_mode>  (80) 
expansion

>  <fragmenstein_error>  (80) 


$$$$
C3894-P197
     RDKit          3D

 38 41  0  0  0  0  0  0  0  0999 V2000
   -1.2162   -3.3300   31.0528 C   0  0  0  0  0  0  0  0  0  0  0  0
    0.2531   -3.5090   30.6347 C   0  0  0  0  0  0  0  0  0  0  0  0
    1.2137   -2.4446   31.2355 C   0  0  0  0  0  0  0  0  0  0  0  0
    1.3921   -1.1338   30.4961 C   0  0  0  0  0  0  0  0  0  0  0  0
    0.0835   -0.6709   30.0618 C   0  0  0  0  0  0  0  0  0  0  0  0
   -0.7774    0.0630   30.7243 N   0  0  0  0  0  0  0  0  0  0  0  0
   -1.9075    0.1342   29.9586 N   0  0  0  0  0  0  0  0  0  0  0  0
   -1.6927   -0.5568   28.8575 C   0  0  0  0  0  0  0  0  0  0  0  0
   -0.5103   -1.2000   28.9602 N   0  0  0  0  0  0  0  0  0  0  0  0
   -0.0789   -2.3806   28.2331 C   0  0  0  0  0  0  0  0  0  0  0  0
    0.4198   -3.5120   29.1265 C   0  0  0  0  0  0  0  0  0  0  0  0
    1.0759   -4.5079   28.6172 N   0  0  0  0  0  0  0  0  0  0  0  0
    1.4426   -5.7873   29.7028 S   0  0  0  0  0  4  0  0  0  0  0  0
    0.7272   -4.8960   31.0356 C   0  0  0  0  0  0  0  0  0  0  0  0
    0.5723   -5.4287   32.3631 C   0  0  0  0  0  0  0  0  0  0  0  0
    0.9801   -4.6191   33.4182 C   0  0  0  0  0  0  0  0  0  0  0  0
    0.3363   -4.7663   34.6160 C   0  0  0  0  0  0  0  0  0  0  0  0
   -0.6288   -5.7596   34.7471 C   0  0  0  0  0  0  0  0  0  0  0  0
   -1.3015   -5.8575   35.9486 N   0  0  0  0  0  0  0  0  0  0  0  0
   -0.8074   -6.7294   33.7595 C   0  0  0  0  0  0  0  0  0  0  0  0
   -0.2388   -6.5428   32.5201 C   0  0  0  0  0  0  0  0  0  0  0  0
   -1.3452   -2.5093   31.7659 H   0  0  0  0  0  0  0  0  0  0  0  0
   -1.6194   -4.2162   31.5434 H   0  0  0  0  0  0  0  0  0  0  0  0
   -1.8766   -3.1391   30.2034 H   0  0  0  0  0  0  0  0  0  0  0  0
    0.8668   -2.1887   32.2455 H   0  0  0  0  0  0  0  0  0  0  0  0
    2.2191   -2.8709   31.3573 H   0  0  0  0  0  0  0  0  0  0  0  0
    1.8608   -0.3957   31.1572 H   0  0  0  0  0  0  0  0  0  0  0  0
    2.0747   -1.2575   29.6470 H   0  0  0  0  0  0  0  0  0  0  0  0
   -2.3598   -0.6869   28.0192 H   0  0  0  0  0  0  0  0  0  0  0  0
   -0.9219   -2.7482   27.6416 H   0  0  0  0  0  0  0  0  0  0  0  0
    0.7205   -2.0672   27.5539 H   0  0  0  0  0  0  0  0  0  0  0  0
    2.7568   -5.5402   29.9165 H   0  0  0  0  0  0  0  0  0  0  0  0
    1.7101   -3.8301   33.3122 H   0  0  0  0  0  0  0  0  0  0  0  0
    0.5543   -4.0961   35.4418 H   0  0  0  0  0  0  0  0  0  0  0  0
   -1.5374   -4.9574   36.3527 H   0  0  0  0  0  0  0  0  0  0  0  0
   -2.1145   -6.4730   35.9753 H   0  0  0  0  0  0  0  0  0  0  0  0
   -1.4805   -7.5671   33.9264 H   0  0  0  0  0  0  0  0  0  0  0  0
   -0.5140   -7.1816   31.6876 H   0  0  0  0  0  0  0  0  0  0  0  0
  1  2  1  0
  2  3  1  0
  3  4  1  0
  4  5  1  0
  5  6  2  0
  6  7  1  0
  7  8  2  0
  8  9  1  0
  9 10  1  0
 10 11  1  0
 11 12  2  0
 12 13  1  0
 13 14  2  0
 14 15  1  0
 15 16  2  0
 16 17  1  0
 17 18  2  0
 18 19  1  0
 18 20  1  0
 20 21  2  0
 11  2  1  0
 21 15  1  0
 14  2  1  0
  9  5  1  0
  1 22  1  0
  1 23  1  0
  1 24  1  0
  3 25  1  0
  3 26  1  0
  4 27  1  0
  4 28  1  0
  8 29  1  0
 10 30  1  0
 10 31  1  0
 13 32  1  0
 16 33  1  0
 17 34  1  0
 19 35  1  0
 19 36  1  0
 20 37  1  0
 21 38  1  0
M  END
>  <Energy>  (81) 
58.497602821147893

>  <compound_id>  (81) 
3894

>  <target_id>  (81) 
1

>  <reference_id>  (81) 
197

>  <inspiration_ids>  (81) 
[135, 197]

>  <energy_score>  (81) 
-33.87386306245986

>  <distance_score>  (81) 
3.1185932490066848

>  <path>  (81) 
/opt/xchem-fragalysis-2/maxwin/BulkDock/SCRATCH/505735/C3894-P197/C3894-P197.minimised.mol

>  <scratch_subdir>  (81) 
/opt/xchem-fragalysis-2/maxwin/BulkDock/SCRATCH/505735/C3894-P197

>  <fragmenstein_runtime>  (81) 
4.2216033935546875

>  <fragmenstein_outcome>  (81) 
too moved

>  <fragmenstein_mode>  (81) 
expansion

>  <fragmenstein_error>  (81) 


$$$$
C3895-P135
     RDKit          3D

 67 70  0  0  0  0  0  0  0  0999 V2000
    4.1174    1.1761   28.2621 C   0  0  0  0  0  0  0  0  0  0  0  0
    3.6637    0.2986   27.1074 C   0  0  0  0  0  0  0  0  0  0  0  0
    2.8998   -0.7973   27.5996 O   0  0  0  0  0  0  0  0  0  0  0  0
    1.5979   -0.5375   27.8576 C   0  0  0  0  0  0  0  0  0  0  0  0
    0.9955    0.4986   27.6238 O   0  0  0  0  0  0  0  0  0  0  0  0
    0.9960   -1.6719   28.5803 C   0  0  0  0  0  0  0  0  0  0  0  0
    1.6904   -2.7658   28.9360 C   0  0  0  0  0  0  0  0  0  0  0  0
    1.3239   -3.5020   30.1931 C   0  0  0  0  0  0  0  0  0  0  0  0
    2.5603   -3.5245   31.0834 C   0  0  0  0  0  0  0  0  0  0  0  0
    2.2016   -3.5216   32.5571 C   0  0  0  0  0  0  0  0  0  0  0  0
    0.7805   -4.0277   32.9377 C   0  0  0  0  0  0  0  0  0  0  0  0
    0.5681   -5.5173   32.5933 C   0  0  0  0  0  0  0  0  0  0  0  0
   -0.8797   -6.0172   32.6914 C   0  0  0  0  0  0  0  0  0  0  0  0
   -0.8812   -7.3624   31.9904 C   0  0  0  0  0  0  0  0  0  0  0  0
    0.0136   -7.1401   30.7943 C   0  0  0  0  0  0  0  0  0  0  0  0
    0.9189   -5.9297   31.1353 C   0  0  0  0  0  0  0  0  0  0  0  0
    0.7451   -4.8961   29.9867 C   0  0  0  0  0  0  0  0  0  0  0  0
    1.3961   -6.1878   33.7173 C   0  0  0  0  0  0  0  0  0  0  0  0
    1.3941   -5.1951   34.9146 C   0  0  0  0  0  0  0  0  0  0  0  0
    0.5916   -3.9387   34.4674 C   0  0  0  0  0  0  0  0  0  0  0  0
   -0.7647   -4.1816   34.7837 O   0  0  0  0  0  0  0  0  0  0  0  0
    0.9773   -2.6307   35.0126 N   0  0  0  0  0  0  0  0  0  0  0  0
    1.3450   -2.6857   36.4244 C   0  0  0  0  0  0  0  0  0  0  0  0
   -0.0354   -1.5592   34.8146 C   0  0  0  0  0  0  0  0  0  0  0  0
   -0.1659   -0.9632   33.4257 C   0  0  0  0  0  0  0  0  0  0  0  0
    0.8517   -0.1552   32.8949 C   0  0  0  0  0  0  0  0  0  0  0  0
    0.6950    0.4674   31.6555 C   0  0  0  0  0  0  0  0  0  0  0  0
   -0.4850    0.2956   30.9367 C   0  0  0  0  0  0  0  0  0  0  0  0
   -1.4971   -0.5198   31.4389 C   0  0  0  0  0  0  0  0  0  0  0  0
   -1.3415   -1.1429   32.6785 C   0  0  0  0  0  0  0  0  0  0  0  0
    4.6670    0.5832   29.0008 H   0  0  0  0  0  0  0  0  0  0  0  0
    4.7616    1.9868   27.9119 H   0  0  0  0  0  0  0  0  0  0  0  0
    3.2610    1.6157   28.7833 H   0  0  0  0  0  0  0  0  0  0  0  0
    4.5349   -0.1453   26.6191 H   0  0  0  0  0  0  0  0  0  0  0  0
    3.1078    0.8717   26.3590 H   0  0  0  0  0  0  0  0  0  0  0  0
    0.0183   -1.4580   28.9906 H   0  0  0  0  0  0  0  0  0  0  0  0
    2.6736   -2.9651   28.5161 H   0  0  0  0  0  0  0  0  0  0  0  0
    0.5528   -2.8905   30.6707 H   0  0  0  0  0  0  0  0  0  0  0  0
    3.2006   -2.6488   30.9044 H   0  0  0  0  0  0  0  0  0  0  0  0
    3.1958   -4.3871   30.8464 H   0  0  0  0  0  0  0  0  0  0  0  0
    2.9874   -4.0673   33.0920 H   0  0  0  0  0  0  0  0  0  0  0  0
    2.3138   -2.4872   32.8952 H   0  0  0  0  0  0  0  0  0  0  0  0
   -0.0068   -3.4510   32.4552 H   0  0  0  0  0  0  0  0  0  0  0  0
   -1.2559   -6.1510   33.7069 H   0  0  0  0  0  0  0  0  0  0  0  0
   -1.5098   -5.3062   32.1582 H   0  0  0  0  0  0  0  0  0  0  0  0
   -1.8850   -7.6840   31.7023 H   0  0  0  0  0  0  0  0  0  0  0  0
   -0.4702   -8.1378   32.6408 H   0  0  0  0  0  0  0  0  0  0  0  0
   -0.6203   -6.9426   29.9249 H   0  0  0  0  0  0  0  0  0  0  0  0
    0.5843   -8.0313   30.5407 H   0  0  0  0  0  0  0  0  0  0  0  0
    1.9646   -6.2303   31.1238 H   0  0  0  0  0  0  0  0  0  0  0  0
   -0.3190   -4.7736   29.7479 H   0  0  0  0  0  0  0  0  0  0  0  0
    1.2114   -5.3359   29.0967 H   0  0  0  0  0  0  0  0  0  0  0  0
    2.4309   -6.3516   33.3968 H   0  0  0  0  0  0  0  0  0  0  0  0
    1.0070   -7.1600   34.0342 H   0  0  0  0  0  0  0  0  0  0  0  0
    2.4382   -4.9568   35.1473 H   0  0  0  0  0  0  0  0  0  0  0  0
    0.9540   -5.6685   35.7997 H   0  0  0  0  0  0  0  0  0  0  0  0
   -0.8422   -4.1943   35.7481 H   0  0  0  0  0  0  0  0  0  0  0  0
    1.6783   -1.7026   36.7781 H   0  0  0  0  0  0  0  0  0  0  0  0
    2.1949   -3.3512   36.6012 H   0  0  0  0  0  0  0  0  0  0  0  0
    0.5126   -3.0074   37.0597 H   0  0  0  0  0  0  0  0  0  0  0  0
    0.2336   -0.7007   35.4484 H   0  0  0  0  0  0  0  0  0  0  0  0
   -1.0210   -1.8609   35.1924 H   0  0  0  0  0  0  0  0  0  0  0  0
    1.7707   -0.0035   33.4570 H   0  0  0  0  0  0  0  0  0  0  0  0
    1.4879    1.0926   31.2532 H   0  0  0  0  0  0  0  0  0  0  0  0
   -0.6117    0.7893   29.9743 H   0  0  0  0  0  0  0  0  0  0  0  0
   -2.4068   -0.6630   30.8635 H   0  0  0  0  0  0  0  0  0  0  0  0
   -2.1396   -1.7739   33.0656 H   0  0  0  0  0  0  0  0  0  0  0  0
  1  2  1  0
  2  3  1  0
  3  4  1  0
  4  5  2  0
  4  6  1  0
  6  7  2  3
  7  8  1  0
  8  9  1  0
  9 10  1  0
 10 11  1  0
 11 12  1  0
 12 13  1  0
 13 14  1  0
 14 15  1  0
 15 16  1  0
 16 17  1  0
 12 18  1  0
 18 19  1  0
 19 20  1  0
 20 21  1  0
 20 22  1  0
 22 23  1  0
 22 24  1  0
 24 25  1  0
 25 26  2  0
 26 27  1  0
 27 28  2  0
 28 29  1  0
 29 30  2  0
 17  8  1  0
 30 25  1  0
 20 11  1  0
 16 12  1  0
  1 31  1  0
  1 32  1  0
  1 33  1  0
  2 34  1  0
  2 35  1  0
  6 36  1  0
  7 37  1  0
  8 38  1  0
  9 39  1  0
  9 40  1  0
 10 41  1  0
 10 42  1  0
 11 43  1  0
 13 44  1  0
 13 45  1  0
 14 46  1  0
 14 47  1  0
 15 48  1  0
 15 49  1  0
 16 50  1  0
 17 51  1  0
 17 52  1  0
 18 53  1  0
 18 54  1  0
 19 55  1  0
 19 56  1  0
 21 57  1  0
 23 58  1  0
 23 59  1  0
 23 60  1  0
 24 61  1  0
 24 62  1  0
 26 63  1  0
 27 64  1  0
 28 65  1  0
 29 66  1  0
 30 67  1  0
M  END
>  <Energy>  (82) 
69.066541307602009

>  <compound_id>  (82) 
3895

>  <target_id>  (82) 
1

>  <reference_id>  (82) 
135

>  <inspiration_ids>  (82) 
[135, 198]

>  <energy_score>  (82) 
-63.36935162029948

>  <distance_score>  (82) 
2.7305243294119994

>  <path>  (82) 
/opt/xchem-fragalysis-2/maxwin/BulkDock/SCRATCH/505735/C3895-P135/C3895-P135.minimised.mol

>  <scratch_subdir>  (82) 
/opt/xchem-fragalysis-2/maxwin/BulkDock/SCRATCH/505735/C3895-P135

>  <fragmenstein_runtime>  (82) 
254.82589268684387

>  <fragmenstein_outcome>  (82) 
too moved

>  <fragmenstein_mode>  (82) 
expansion

>  <fragmenstein_error>  (82) 


$$$$
C3895-P198
     RDKit          3D

 67 70  0  0  0  0  0  0  0  0999 V2000
   -2.2513    1.6416   26.9493 C   0  0  0  0  0  0  0  0  0  0  0  0
   -1.5751    0.4332   27.5718 C   0  0  0  0  0  0  0  0  0  0  0  0
   -0.1526    0.6517   27.5205 O   0  0  0  0  0  0  0  0  0  0  0  0
    0.7653   -0.2924   27.8486 C   0  0  0  0  0  0  0  0  0  0  0  0
    1.9489   -0.1453   27.5599 O   0  0  0  0  0  0  0  0  0  0  0  0
    0.3024   -1.4412   28.6563 C   0  0  0  0  0  0  0  0  0  0  0  0
    1.1597   -2.4223   28.9930 C   0  0  0  0  0  0  0  0  0  0  0  0
    0.9405   -3.2866   30.2162 C   0  0  0  0  0  0  0  0  0  0  0  0
    2.2055   -3.2263   31.0608 C   0  0  0  0  0  0  0  0  0  0  0  0
    1.9731   -3.5081   32.5380 C   0  0  0  0  0  0  0  0  0  0  0  0
    0.5877   -4.0937   32.9505 C   0  0  0  0  0  0  0  0  0  0  0  0
    0.4540   -5.5561   32.4901 C   0  0  0  0  0  0  0  0  0  0  0  0
   -0.9688   -6.1237   32.5625 C   0  0  0  0  0  0  0  0  0  0  0  0
   -0.9114   -7.4172   31.7784 C   0  0  0  0  0  0  0  0  0  0  0  0
   -0.0092   -7.0918   30.6086 C   0  0  0  0  0  0  0  0  0  0  0  0
    0.8120   -5.8330   30.9986 C   0  0  0  0  0  0  0  0  0  0  0  0
    0.5231   -4.7308   29.9271 C   0  0  0  0  0  0  0  0  0  0  0  0
    1.3370   -6.2808   33.5419 C   0  0  0  0  0  0  0  0  0  0  0  0
    1.4006   -5.3567   34.7876 C   0  0  0  0  0  0  0  0  0  0  0  0
    0.4643   -4.1525   34.4959 C   0  0  0  0  0  0  0  0  0  0  0  0
   -0.8173   -4.5817   34.9337 O   0  0  0  0  0  0  0  0  0  0  0  0
    0.7959   -2.8782   35.1495 N   0  0  0  0  0  0  0  0  0  0  0  0
    1.0939   -3.0714   36.5700 C   0  0  0  0  0  0  0  0  0  0  0  0
   -0.2421   -1.8254   35.0246 C   0  0  0  0  0  0  0  0  0  0  0  0
   -0.2858   -1.0737   33.7081 C   0  0  0  0  0  0  0  0  0  0  0  0
    0.8118   -0.2984   33.3008 C   0  0  0  0  0  0  0  0  0  0  0  0
    0.7673    0.4400   32.1199 C   0  0  0  0  0  0  0  0  0  0  0  0
   -0.3878    0.4334   31.3467 C   0  0  0  0  0  0  0  0  0  0  0  0
   -1.4924   -0.3243   31.7377 C   0  0  0  0  0  0  0  0  0  0  0  0
   -1.4431   -1.0743   32.9138 C   0  0  0  0  0  0  0  0  0  0  0  0
   -3.3370    1.5203   26.9272 H   0  0  0  0  0  0  0  0  0  0  0  0
   -1.8978    1.8096   25.9285 H   0  0  0  0  0  0  0  0  0  0  0  0
   -2.0114    2.5466   27.5175 H   0  0  0  0  0  0  0  0  0  0  0  0
   -1.8954    0.3510   28.6129 H   0  0  0  0  0  0  0  0  0  0  0  0
   -1.8390   -0.4758   27.0255 H   0  0  0  0  0  0  0  0  0  0  0  0
   -0.6629   -1.3766   29.1322 H   0  0  0  0  0  0  0  0  0  0  0  0
    2.1427   -2.4600   28.5240 H   0  0  0  0  0  0  0  0  0  0  0  0
    0.1238   -2.8079   30.7636 H   0  0  0  0  0  0  0  0  0  0  0  0
    2.6759   -2.2354   30.9877 H   0  0  0  0  0  0  0  0  0  0  0  0
    2.9563   -3.9241   30.6655 H   0  0  0  0  0  0  0  0  0  0  0  0
    2.7958   -4.1498   32.8749 H   0  0  0  0  0  0  0  0  0  0  0  0
    2.1508   -2.5689   33.0658 H   0  0  0  0  0  0  0  0  0  0  0  0
   -0.2478   -3.5160   32.5577 H   0  0  0  0  0  0  0  0  0  0  0  0
   -1.3414   -6.3364   33.5657 H   0  0  0  0  0  0  0  0  0  0  0  0
   -1.6346   -5.4123   32.0765 H   0  0  0  0  0  0  0  0  0  0  0  0
   -1.9030   -7.7485   31.4621 H   0  0  0  0  0  0  0  0  0  0  0  0
   -0.4828   -8.2201   32.3829 H   0  0  0  0  0  0  0  0  0  0  0  0
   -0.6419   -6.9076   29.7385 H   0  0  0  0  0  0  0  0  0  0  0  0
    0.6203   -7.9411   30.3458 H   0  0  0  0  0  0  0  0  0  0  0  0
    1.8799   -6.0573   30.9302 H   0  0  0  0  0  0  0  0  0  0  0  0
    1.0261   -5.0535   29.0072 H   0  0  0  0  0  0  0  0  0  0  0  0
   -0.5474   -4.7091   29.6937 H   0  0  0  0  0  0  0  0  0  0  0  0
    2.3540   -6.4326   33.1671 H   0  0  0  0  0  0  0  0  0  0  0  0
    0.9525   -7.2634   33.8304 H   0  0  0  0  0  0  0  0  0  0  0  0
    2.4414   -5.0413   34.9285 H   0  0  0  0  0  0  0  0  0  0  0  0
    1.0981   -5.9111   35.6838 H   0  0  0  0  0  0  0  0  0  0  0  0
   -1.5079   -4.1353   34.4136 H   0  0  0  0  0  0  0  0  0  0  0  0
    1.3880   -2.1236   37.0368 H   0  0  0  0  0  0  0  0  0  0  0  0
    1.9483   -3.7379   36.7227 H   0  0  0  0  0  0  0  0  0  0  0  0
    0.2368   -3.4700   37.1248 H   0  0  0  0  0  0  0  0  0  0  0  0
   -0.0511   -1.0405   35.7717 H   0  0  0  0  0  0  0  0  0  0  0  0
   -1.2384   -2.2032   35.2860 H   0  0  0  0  0  0  0  0  0  0  0  0
    1.7135   -0.2758   33.9104 H   0  0  0  0  0  0  0  0  0  0  0  0
    1.6287    1.0267   31.8106 H   0  0  0  0  0  0  0  0  0  0  0  0
   -0.4222    1.0302   30.4392 H   0  0  0  0  0  0  0  0  0  0  0  0
   -2.3941   -0.3202   31.1312 H   0  0  0  0  0  0  0  0  0  0  0  0
   -2.3144   -1.6509   33.2162 H   0  0  0  0  0  0  0  0  0  0  0  0
  1  2  1  0
  2  3  1  0
  3  4  1  0
  4  5  2  0
  4  6  1  0
  6  7  2  3
  7  8  1  0
  8  9  1  0
  9 10  1  0
 10 11  1  0
 11 12  1  0
 12 13  1  0
 13 14  1  0
 14 15  1  0
 15 16  1  0
 16 17  1  0
 12 18  1  0
 18 19  1  0
 19 20  1  0
 20 21  1  0
 20 22  1  0
 22 23  1  0
 22 24  1  0
 24 25  1  0
 25 26  2  0
 26 27  1  0
 27 28  2  0
 28 29  1  0
 29 30  2  0
 17  8  1  0
 30 25  1  0
 20 11  1  0
 16 12  1  0
  1 31  1  0
  1 32  1  0
  1 33  1  0
  2 34  1  0
  2 35  1  0
  6 36  1  0
  7 37  1  0
  8 38  1  0
  9 39  1  0
  9 40  1  0
 10 41  1  0
 10 42  1  0
 11 43  1  0
 13 44  1  0
 13 45  1  0
 14 46  1  0
 14 47  1  0
 15 48  1  0
 15 49  1  0
 16 50  1  0
 17 51  1  0
 17 52  1  0
 18 53  1  0
 18 54  1  0
 19 55  1  0
 19 56  1  0
 21 57  1  0
 23 58  1  0
 23 59  1  0
 23 60  1  0
 24 61  1  0
 24 62  1  0
 26 63  1  0
 27 64  1  0
 28 65  1  0
 29 66  1  0
 30 67  1  0
M  END
>  <Energy>  (83) 
78.50815357632338

>  <compound_id>  (83) 
3895

>  <target_id>  (83) 
1

>  <reference_id>  (83) 
198

>  <inspiration_ids>  (83) 
[135, 198]

>  <energy_score>  (83) 
-53.927739351571574

>  <distance_score>  (83) 
2.7626229828268944

>  <path>  (83) 
/opt/xchem-fragalysis-2/maxwin/BulkDock/SCRATCH/505735/C3895-P198/C3895-P198.minimised.mol

>  <scratch_subdir>  (83) 
/opt/xchem-fragalysis-2/maxwin/BulkDock/SCRATCH/505735/C3895-P198

>  <fragmenstein_runtime>  (83) 
256.4797189235687

>  <fragmenstein_outcome>  (83) 
too moved

>  <fragmenstein_mode>  (83) 
expansion

>  <fragmenstein_error>  (83) 


$$$$
C3896-P135
     RDKit          3D

 58 60  0  0  0  0  0  0  0  0999 V2000
    3.8906   -2.1291   27.9555 C   0  0  0  0  0  0  0  0  0  0  0  0
    4.2814   -2.9451   29.1726 C   0  0  0  0  0  0  0  0  0  0  0  0
    3.1624   -3.7026   29.6542 O   0  0  0  0  0  0  0  0  0  0  0  0
    2.9352   -4.8796   29.0301 C   0  0  0  0  0  0  0  0  0  0  0  0
    3.5868   -5.3663   28.1165 O   0  0  0  0  0  0  0  0  0  0  0  0
    1.7888   -5.6043   29.6127 C   0  0  0  0  0  0  0  0  0  0  0  0
    1.0474   -5.2040   30.6535 C   0  0  0  0  0  0  0  0  0  0  0  0
   -0.1079   -5.9391   31.3027 C   0  0  0  0  0  0  0  0  0  0  0  0
   -0.5231   -7.3004   30.7204 C   0  0  0  0  0  0  0  0  0  0  0  0
   -1.3583   -7.9617   31.8184 C   0  0  0  0  0  0  0  0  0  0  0  0
   -1.1290   -7.1696   33.1047 C   0  0  0  0  0  0  0  0  0  0  0  0
    0.0738   -6.2690   32.8195 C   0  0  0  0  0  0  0  0  0  0  0  0
    1.2679   -7.1135   32.9412 N   0  0  0  0  0  0  0  0  0  0  0  0
    1.6432   -7.1106   34.3322 N   0  0  0  0  0  0  0  0  0  0  0  0
    0.9200   -5.9840   34.8991 C   0  0  0  0  0  0  0  0  0  0  0  0
    0.4463   -5.2242   33.7552 N   0  0  0  0  0  0  0  0  0  0  0  0
   -0.5550   -4.2671   34.2458 C   0  0  0  0  0  0  0  0  0  0  0  0
   -1.0277   -3.2984   33.1493 C   0  0  0  0  0  0  0  0  0  0  0  0
   -1.7386   -3.6273   32.2674 O   0  0  0  0  0  0  0  0  0  0  0  0
   -0.3230   -1.9654   33.4072 N   0  0  0  0  0  0  0  0  0  0  0  0
    1.0410   -1.9393   32.7739 C   0  0  0  0  0  0  0  0  0  0  0  0
   -0.4095   -0.6359   32.6619 C   0  0  0  0  0  0  0  0  0  0  0  0
   -0.3737   -0.5250   31.1358 C   0  0  0  0  0  0  0  0  0  0  0  0
    0.6063    0.2846   30.5337 C   0  0  0  0  0  0  0  0  0  0  0  0
    0.6991    0.3748   29.1470 C   0  0  0  0  0  0  0  0  0  0  0  0
   -0.1873   -0.3394   28.3486 C   0  0  0  0  0  0  0  0  0  0  0  0
   -1.1646   -1.1433   28.9263 C   0  0  0  0  0  0  0  0  0  0  0  0
   -1.2667   -1.2250   30.3145 C   0  0  0  0  0  0  0  0  0  0  0  0
    4.7149   -1.4841   27.6385 H   0  0  0  0  0  0  0  0  0  0  0  0
    3.0159   -1.5075   28.1712 H   0  0  0  0  0  0  0  0  0  0  0  0
    3.6216   -2.7828   27.1205 H   0  0  0  0  0  0  0  0  0  0  0  0
    5.1356   -3.5991   28.9598 H   0  0  0  0  0  0  0  0  0  0  0  0
    4.5830   -2.2734   29.9835 H   0  0  0  0  0  0  0  0  0  0  0  0
    1.6024   -6.5504   29.1279 H   0  0  0  0  0  0  0  0  0  0  0  0
    1.2707   -4.2481   31.1124 H   0  0  0  0  0  0  0  0  0  0  0  0
   -0.9754   -5.2991   31.1657 H   0  0  0  0  0  0  0  0  0  0  0  0
    0.3398   -7.9304   30.4858 H   0  0  0  0  0  0  0  0  0  0  0  0
   -1.0957   -7.1984   29.7971 H   0  0  0  0  0  0  0  0  0  0  0  0
   -2.4195   -7.9657   31.5718 H   0  0  0  0  0  0  0  0  0  0  0  0
   -1.0652   -9.0053   31.9293 H   0  0  0  0  0  0  0  0  0  0  0  0
   -1.0131   -7.8417   33.9619 H   0  0  0  0  0  0  0  0  0  0  0  0
   -1.9909   -6.5510   33.3187 H   0  0  0  0  0  0  0  0  0  0  0  0
    1.9840   -6.6283   32.3979 H   0  0  0  0  0  0  0  0  0  0  0  0
    2.6383   -6.9090   34.4512 H   0  0  0  0  0  0  0  0  0  0  0  0
    1.5838   -5.3804   35.5291 H   0  0  0  0  0  0  0  0  0  0  0  0
    0.1115   -6.3647   35.5372 H   0  0  0  0  0  0  0  0  0  0  0  0
   -0.1014   -3.6622   35.0434 H   0  0  0  0  0  0  0  0  0  0  0  0
   -1.3825   -4.7730   34.7264 H   0  0  0  0  0  0  0  0  0  0  0  0
    1.5717   -2.7684   33.2651 H   0  0  0  0  0  0  0  0  0  0  0  0
    1.0716   -2.2520   31.7250 H   0  0  0  0  0  0  0  0  0  0  0  0
    1.6980   -1.0924   33.0308 H   0  0  0  0  0  0  0  0  0  0  0  0
   -1.4412   -0.3291   32.9003 H   0  0  0  0  0  0  0  0  0  0  0  0
    0.1718    0.1536   33.1704 H   0  0  0  0  0  0  0  0  0  0  0  0
    1.3085    0.8492   31.1424 H   0  0  0  0  0  0  0  0  0  0  0  0
    1.4558    1.0025   28.6848 H   0  0  0  0  0  0  0  0  0  0  0  0
   -0.1319   -0.2652   27.2695 H   0  0  0  0  0  0  0  0  0  0  0  0
   -1.8524   -1.6994   28.2904 H   0  0  0  0  0  0  0  0  0  0  0  0
   -2.0484   -1.8444   30.7431 H   0  0  0  0  0  0  0  0  0  0  0  0
  1  2  1  0
  2  3  1  0
  3  4  1  0
  4  5  2  0
  4  6  1  0
  6  7  2  3
  7  8  1  0
  8  9  1  0
  9 10  1  0
 10 11  1  0
 11 12  1  0
 12 13  1  0
 13 14  1  0
 14 15  1  0
 15 16  1  0
 16 17  1  0
 17 18  1  0
 18 19  2  0
 18 20  1  0
 20 21  1  0
 20 22  1  0
 22 23  1  0
 23 24  2  0
 24 25  1  0
 25 26  2  0
 26 27  1  0
 27 28  2  0
 12  8  1  0
 28 23  1  0
 16 12  1  0
  1 29  1  0
  1 30  1  0
  1 31  1  0
  2 32  1  0
  2 33  1  0
  6 34  1  0
  7 35  1  0
  8 36  1  0
  9 37  1  0
  9 38  1  0
 10 39  1  0
 10 40  1  0
 11 41  1  0
 11 42  1  0
 13 43  1  0
 14 44  1  0
 15 45  1  0
 15 46  1  0
 17 47  1  0
 17 48  1  0
 21 49  1  0
 21 50  1  0
 21 51  1  0
 22 52  1  0
 22 53  1  0
 24 54  1  0
 25 55  1  0
 26 56  1  0
 27 57  1  0
 28 58  1  0
M  END
>  <Energy>  (84) 
162.72449035497101

>  <compound_id>  (84) 
3896

>  <target_id>  (84) 
1

>  <reference_id>  (84) 
135

>  <inspiration_ids>  (84) 
[135, 199]

>  <energy_score>  (84) 
27.55349802124124

>  <distance_score>  (84) 
2.7529636315852803

>  <path>  (84) 
/opt/xchem-fragalysis-2/maxwin/BulkDock/SCRATCH/505735/C3896-P135/C3896-P135.minimised.mol

>  <scratch_subdir>  (84) 
/opt/xchem-fragalysis-2/maxwin/BulkDock/SCRATCH/505735/C3896-P135

>  <fragmenstein_runtime>  (84) 
11.161314487457275

>  <fragmenstein_outcome>  (84) 
too moved

>  <fragmenstein_mode>  (84) 
expansion

>  <fragmenstein_error>  (84) 


$$$$
C3896-P199
     RDKit          3D

 58 60  0  0  0  0  0  0  0  0999 V2000
    3.3678    0.1977   34.5917 C   0  0  0  0  0  0  0  0  0  0  0  0
    4.3720   -0.4160   33.6343 C   0  0  0  0  0  0  0  0  0  0  0  0
    3.8334   -1.6122   33.0586 O   0  0  0  0  0  0  0  0  0  0  0  0
    4.0318   -2.7489   33.7662 C   0  0  0  0  0  0  0  0  0  0  0  0
    4.6899   -2.8664   34.7900 O   0  0  0  0  0  0  0  0  0  0  0  0
    3.3845   -3.9146   33.1237 C   0  0  0  0  0  0  0  0  0  0  0  0
    2.4608   -3.8325   32.1508 C   0  0  0  0  0  0  0  0  0  0  0  0
    1.8198   -5.0318   31.4854 C   0  0  0  0  0  0  0  0  0  0  0  0
    2.2314   -4.9482   29.9970 C   0  0  0  0  0  0  0  0  0  0  0  0
    1.1666   -4.0579   29.3653 C   0  0  0  0  0  0  0  0  0  0  0  0
   -0.0459   -4.1229   30.3003 C   0  0  0  0  0  0  0  0  0  0  0  0
    0.2645   -5.1794   31.3746 C   0  0  0  0  0  0  0  0  0  0  0  0
    0.0254   -6.5535   30.8029 N   0  0  0  0  0  0  0  0  0  0  0  0
   -0.8346   -7.2504   31.7181 N   0  0  0  0  0  0  0  0  0  0  0  0
   -0.6845   -6.5190   32.9634 C   0  0  0  0  0  0  0  0  0  0  0  0
   -0.6048   -5.1278   32.5405 N   0  0  0  0  0  0  0  0  0  0  0  0
   -0.2203   -4.2770   33.6907 C   0  0  0  0  0  0  0  0  0  0  0  0
   -0.2061   -2.7345   33.4609 C   0  0  0  0  0  0  0  0  0  0  0  0
    0.7324   -2.1016   33.7911 O   0  0  0  0  0  0  0  0  0  0  0  0
   -1.4842   -2.3047   32.7677 N   0  0  0  0  0  0  0  0  0  0  0  0
   -2.5426   -1.9191   33.7663 C   0  0  0  0  0  0  0  0  0  0  0  0
   -1.8956   -0.9611   32.2012 C   0  0  0  0  0  0  0  0  0  0  0  0
   -1.1247   -0.7482   30.8937 C   0  0  0  0  0  0  0  0  0  0  0  0
    0.1843   -0.2371   30.9008 C   0  0  0  0  0  0  0  0  0  0  0  0
    0.8756   -0.0470   29.7035 C   0  0  0  0  0  0  0  0  0  0  0  0
    0.2712   -0.3757   28.4921 C   0  0  0  0  0  0  0  0  0  0  0  0
   -1.0184   -0.9034   28.4747 C   0  0  0  0  0  0  0  0  0  0  0  0
   -1.7126   -1.0931   29.6681 C   0  0  0  0  0  0  0  0  0  0  0  0
    3.1494   -0.4833   35.4205 H   0  0  0  0  0  0  0  0  0  0  0  0
    2.4192    0.3926   34.0808 H   0  0  0  0  0  0  0  0  0  0  0  0
    3.7468    1.1380   35.0017 H   0  0  0  0  0  0  0  0  0  0  0  0
    4.5657    0.2780   32.8098 H   0  0  0  0  0  0  0  0  0  0  0  0
    5.3321   -0.6047   34.1280 H   0  0  0  0  0  0  0  0  0  0  0  0
    3.6980   -4.8680   33.5318 H   0  0  0  0  0  0  0  0  0  0  0  0
    2.1624   -2.8503   31.7834 H   0  0  0  0  0  0  0  0  0  0  0  0
    2.1888   -5.9268   31.9865 H   0  0  0  0  0  0  0  0  0  0  0  0
    2.2102   -5.9354   29.5230 H   0  0  0  0  0  0  0  0  0  0  0  0
    3.2381   -4.5459   29.8350 H   0  0  0  0  0  0  0  0  0  0  0  0
    1.5298   -3.0278   29.2914 H   0  0  0  0  0  0  0  0  0  0  0  0
    0.9241   -4.3741   28.3518 H   0  0  0  0  0  0  0  0  0  0  0  0
   -0.9699   -4.3002   29.7470 H   0  0  0  0  0  0  0  0  0  0  0  0
   -0.1418   -3.1494   30.7678 H   0  0  0  0  0  0  0  0  0  0  0  0
   -0.4185   -6.4473   29.8894 H   0  0  0  0  0  0  0  0  0  0  0  0
   -0.5596   -8.2238   31.8661 H   0  0  0  0  0  0  0  0  0  0  0  0
    0.2305   -6.8443   33.4789 H   0  0  0  0  0  0  0  0  0  0  0  0
   -1.5246   -6.7162   33.6307 H   0  0  0  0  0  0  0  0  0  0  0  0
    0.7625   -4.5722   34.0749 H   0  0  0  0  0  0  0  0  0  0  0  0
   -0.8963   -4.4424   34.5338 H   0  0  0  0  0  0  0  0  0  0  0  0
   -2.4700   -2.6582   34.5712 H   0  0  0  0  0  0  0  0  0  0  0  0
   -2.3727   -0.9927   34.3401 H   0  0  0  0  0  0  0  0  0  0  0  0
   -3.5662   -2.0366   33.3811 H   0  0  0  0  0  0  0  0  0  0  0  0
   -2.9573   -0.8768   31.9123 H   0  0  0  0  0  0  0  0  0  0  0  0
   -1.5741   -0.1123   32.8286 H   0  0  0  0  0  0  0  0  0  0  0  0
    0.6716    0.0024   31.8440 H   0  0  0  0  0  0  0  0  0  0  0  0
    1.8877    0.3472   29.7184 H   0  0  0  0  0  0  0  0  0  0  0  0
    0.8097   -0.2357   27.5607 H   0  0  0  0  0  0  0  0  0  0  0  0
   -1.4882   -1.1743   27.5315 H   0  0  0  0  0  0  0  0  0  0  0  0
   -2.7134   -1.5178   29.6308 H   0  0  0  0  0  0  0  0  0  0  0  0
  1  2  1  0
  2  3  1  0
  3  4  1  0
  4  5  2  0
  4  6  1  0
  6  7  2  3
  7  8  1  0
  8  9  1  0
  9 10  1  0
 10 11  1  0
 11 12  1  0
 12 13  1  0
 13 14  1  0
 14 15  1  0
 15 16  1  0
 16 17  1  0
 17 18  1  0
 18 19  2  0
 18 20  1  0
 20 21  1  0
 20 22  1  0
 22 23  1  0
 23 24  2  0
 24 25  1  0
 25 26  2  0
 26 27  1  0
 27 28  2  0
 12  8  1  0
 28 23  1  0
 16 12  1  0
  1 29  1  0
  1 30  1  0
  1 31  1  0
  2 32  1  0
  2 33  1  0
  6 34  1  0
  7 35  1  0
  8 36  1  0
  9 37  1  0
  9 38  1  0
 10 39  1  0
 10 40  1  0
 11 41  1  0
 11 42  1  0
 13 43  1  0
 14 44  1  0
 15 45  1  0
 15 46  1  0
 17 47  1  0
 17 48  1  0
 21 49  1  0
 21 50  1  0
 21 51  1  0
 22 52  1  0
 22 53  1  0
 24 54  1  0
 25 55  1  0
 26 56  1  0
 27 57  1  0
 28 58  1  0
M  END
>  <Energy>  (85) 
156.73494731932473

>  <compound_id>  (85) 
3896

>  <target_id>  (85) 
1

>  <reference_id>  (85) 
199

>  <inspiration_ids>  (85) 
[135, 199]

>  <energy_score>  (85) 
21.56395498559391

>  <distance_score>  (85) 
3.1887016851261163

>  <path>  (85) 
/opt/xchem-fragalysis-2/maxwin/BulkDock/SCRATCH/505735/C3896-P199/C3896-P199.minimised.mol

>  <scratch_subdir>  (85) 
/opt/xchem-fragalysis-2/maxwin/BulkDock/SCRATCH/505735/C3896-P199

>  <fragmenstein_runtime>  (85) 
12.150253057479858

>  <fragmenstein_outcome>  (85) 
too moved

>  <fragmenstein_mode>  (85) 
expansion

>  <fragmenstein_error>  (85) 


$$$$
C3922-P135
     RDKit          3D

 39 41  0  0  0  0  0  0  0  0999 V2000
   -0.3627   -7.9062   30.2492 C   0  0  0  0  0  0  0  0  0  0  0  0
   -0.5520   -7.4636   31.6361 C   0  0  0  0  0  0  0  0  0  0  0  0
   -1.1925   -8.0951   32.5868 N   0  0  0  0  0  0  0  0  0  0  0  0
   -1.1083   -7.3377   33.7333 N   0  0  0  0  0  0  0  0  0  0  0  0
   -0.4372   -6.2359   33.4618 C   0  0  0  0  0  0  0  0  0  0  0  0
   -0.0959   -6.2809   32.1327 N   0  0  0  0  0  0  0  0  0  0  0  0
    0.4145   -5.1849   31.3608 C   0  0  0  0  0  0  0  0  0  0  0  0
   -0.4237   -3.9990   31.7176 C   0  0  0  0  0  0  0  0  0  0  0  0
   -1.6001   -3.9582   31.3386 O   0  0  0  0  0  0  0  0  0  0  0  0
    0.0978   -3.0569   32.7894 C   0  0  0  0  0  0  0  0  0  0  0  0
    1.6302   -2.9244   32.8366 C   0  0  0  0  0  0  0  0  0  0  0  0
   -0.5328   -1.6506   32.5278 C   0  0  0  0  0  0  0  0  0  0  0  0
   -0.2308   -1.0721   31.1516 C   0  0  0  0  0  0  0  0  0  0  0  0
    0.9242   -0.3160   30.9186 C   0  0  0  0  0  0  0  0  0  0  0  0
    1.2298    0.1365   29.6314 C   0  0  0  0  0  0  0  0  0  0  0  0
    0.3835   -0.1554   28.5637 C   0  0  0  0  0  0  0  0  0  0  0  0
   -0.7804   -0.8828   28.7815 C   0  0  0  0  0  0  0  0  0  0  0  0
   -1.0891   -1.3233   30.0683 C   0  0  0  0  0  0  0  0  0  0  0  0
   -0.4229   -3.6837   34.1155 C   0  0  0  0  0  0  0  0  0  0  0  0
   -0.0256   -5.1535   34.4292 C   0  0  0  0  0  0  0  0  0  0  0  0
    0.6458   -7.6876   29.8933 H   0  0  0  0  0  0  0  0  0  0  0  0
   -0.5138   -8.9838   30.1602 H   0  0  0  0  0  0  0  0  0  0  0  0
   -1.0875   -7.4045   29.6075 H   0  0  0  0  0  0  0  0  0  0  0  0
    1.4784   -5.0786   31.5649 H   0  0  0  0  0  0  0  0  0  0  0  0
    0.2963   -5.3717   30.2900 H   0  0  0  0  0  0  0  0  0  0  0  0
    2.0519   -2.7387   31.8433 H   0  0  0  0  0  0  0  0  0  0  0  0
    1.9320   -2.1027   33.4961 H   0  0  0  0  0  0  0  0  0  0  0  0
    2.1215   -3.8238   33.2190 H   0  0  0  0  0  0  0  0  0  0  0  0
   -0.1917   -0.9412   33.2938 H   0  0  0  0  0  0  0  0  0  0  0  0
   -1.6243   -1.6944   32.6481 H   0  0  0  0  0  0  0  0  0  0  0  0
    1.6020   -0.0764   31.7343 H   0  0  0  0  0  0  0  0  0  0  0  0
    2.1305    0.7201   29.4595 H   0  0  0  0  0  0  0  0  0  0  0  0
    0.6224    0.1939   27.5637 H   0  0  0  0  0  0  0  0  0  0  0  0
   -1.4499   -1.1068   27.9518 H   0  0  0  0  0  0  0  0  0  0  0  0
   -2.0111   -1.8818   30.2095 H   0  0  0  0  0  0  0  0  0  0  0  0
   -1.5118   -3.6046   34.1283 H   0  0  0  0  0  0  0  0  0  0  0  0
   -0.0759   -3.0616   34.9517 H   0  0  0  0  0  0  0  0  0  0  0  0
   -0.4627   -5.4058   35.4045 H   0  0  0  0  0  0  0  0  0  0  0  0
    1.0595   -5.2190   34.5690 H   0  0  0  0  0  0  0  0  0  0  0  0
  1  2  1  0
  2  3  2  0
  3  4  1  0
  4  5  2  0
  5  6  1  0
  6  7  1  0
  7  8  1  0
  8  9  2  0
  8 10  1  0
 10 11  1  0
 10 12  1  0
 12 13  1  0
 13 14  2  0
 14 15  1  0
 15 16  2  0
 16 17  1  0
 17 18  2  0
 10 19  1  0
 19 20  1  0
  6  2  1  0
 18 13  1  0
 20  5  1  0
  1 21  1  0
  1 22  1  0
  1 23  1  0
  7 24  1  0
  7 25  1  0
 11 26  1  0
 11 27  1  0
 11 28  1  0
 12 29  1  0
 12 30  1  0
 14 31  1  0
 15 32  1  0
 16 33  1  0
 17 34  1  0
 18 35  1  0
 19 36  1  0
 19 37  1  0
 20 38  1  0
 20 39  1  0
M  END
>  <Energy>  (86) 
38.178592559768639

>  <compound_id>  (86) 
3922

>  <target_id>  (86) 
1

>  <reference_id>  (86) 
135

>  <inspiration_ids>  (86) 
[135, 200]

>  <energy_score>  (86) 
-27.547157216089374

>  <distance_score>  (86) 
1.1865041103470595

>  <path>  (86) 
/opt/xchem-fragalysis-2/maxwin/BulkDock/SCRATCH/505735/C3922-P135/C3922-P135.minimised.mol

>  <scratch_subdir>  (86) 
/opt/xchem-fragalysis-2/maxwin/BulkDock/SCRATCH/505735/C3922-P135

>  <fragmenstein_runtime>  (86) 
4.825634002685547

>  <fragmenstein_outcome>  (86) 
too moved

>  <fragmenstein_mode>  (86) 
expansion

>  <fragmenstein_error>  (86) 


$$$$
C3922-P200
     RDKit          3D

 39 41  0  0  0  0  0  0  0  0999 V2000
   -0.4014   -7.8787   30.1963 C   0  0  0  0  0  0  0  0  0  0  0  0
   -0.5665   -7.4441   31.5897 C   0  0  0  0  0  0  0  0  0  0  0  0
   -1.1717   -8.0904   32.5537 N   0  0  0  0  0  0  0  0  0  0  0  0
   -1.0572   -7.3440   33.7049 N   0  0  0  0  0  0  0  0  0  0  0  0
   -0.4005   -6.2361   33.4242 C   0  0  0  0  0  0  0  0  0  0  0  0
   -0.1156   -6.2570   32.0815 N   0  0  0  0  0  0  0  0  0  0  0  0
    0.3625   -5.1507   31.3034 C   0  0  0  0  0  0  0  0  0  0  0  0
   -0.4390   -3.9584   31.7212 C   0  0  0  0  0  0  0  0  0  0  0  0
   -1.6250   -3.8774   31.3804 O   0  0  0  0  0  0  0  0  0  0  0  0
    0.1417   -3.0535   32.7968 C   0  0  0  0  0  0  0  0  0  0  0  0
    1.6771   -2.9490   32.7845 C   0  0  0  0  0  0  0  0  0  0  0  0
   -0.4746   -1.6296   32.5974 C   0  0  0  0  0  0  0  0  0  0  0  0
   -0.2488   -1.0369   31.2129 C   0  0  0  0  0  0  0  0  0  0  0  0
    0.9349   -0.3587   30.8968 C   0  0  0  0  0  0  0  0  0  0  0  0
    1.1767    0.0789   29.5916 C   0  0  0  0  0  0  0  0  0  0  0  0
    0.2349   -0.1453   28.5901 C   0  0  0  0  0  0  0  0  0  0  0  0
   -0.9626   -0.7818   28.8967 C   0  0  0  0  0  0  0  0  0  0  0  0
   -1.2074   -1.2101   30.2009 C   0  0  0  0  0  0  0  0  0  0  0  0
   -0.3308   -3.7015   34.1295 C   0  0  0  0  0  0  0  0  0  0  0  0
    0.0602   -5.1797   34.3962 C   0  0  0  0  0  0  0  0  0  0  0  0
    0.6044   -7.6625   29.8284 H   0  0  0  0  0  0  0  0  0  0  0  0
   -0.5603   -8.9551   30.1024 H   0  0  0  0  0  0  0  0  0  0  0  0
   -1.1349   -7.3688   29.5695 H   0  0  0  0  0  0  0  0  0  0  0  0
    1.4373   -5.0578   31.4495 H   0  0  0  0  0  0  0  0  0  0  0  0
    0.1841   -5.3193   30.2377 H   0  0  0  0  0  0  0  0  0  0  0  0
    2.0625   -2.7503   31.7792 H   0  0  0  0  0  0  0  0  0  0  0  0
    2.0211   -2.1481   33.4486 H   0  0  0  0  0  0  0  0  0  0  0  0
    2.1668   -3.8657   33.1258 H   0  0  0  0  0  0  0  0  0  0  0  0
   -0.0707   -0.9383   33.3492 H   0  0  0  0  0  0  0  0  0  0  0  0
   -1.5567   -1.6555   32.7876 H   0  0  0  0  0  0  0  0  0  0  0  0
    1.6895   -0.1776   31.6583 H   0  0  0  0  0  0  0  0  0  0  0  0
    2.1058    0.5900   29.3519 H   0  0  0  0  0  0  0  0  0  0  0  0
    0.4315    0.1829   27.5738 H   0  0  0  0  0  0  0  0  0  0  0  0
   -1.7087   -0.9499   28.1246 H   0  0  0  0  0  0  0  0  0  0  0  0
   -2.1542   -1.7039   30.4112 H   0  0  0  0  0  0  0  0  0  0  0  0
   -1.4160   -3.6126   34.1913 H   0  0  0  0  0  0  0  0  0  0  0  0
    0.0578   -3.1007   34.9631 H   0  0  0  0  0  0  0  0  0  0  0  0
   -0.3426   -5.4478   35.3821 H   0  0  0  0  0  0  0  0  0  0  0  0
    1.1488   -5.2612   34.4941 H   0  0  0  0  0  0  0  0  0  0  0  0
  1  2  1  0
  2  3  2  0
  3  4  1  0
  4  5  2  0
  5  6  1  0
  6  7  1  0
  7  8  1  0
  8  9  2  0
  8 10  1  0
 10 11  1  0
 10 12  1  0
 12 13  1  0
 13 14  2  0
 14 15  1  0
 15 16  2  0
 16 17  1  0
 17 18  2  0
 10 19  1  0
 19 20  1  0
  6  2  1  0
 18 13  1  0
 20  5  1  0
  1 21  1  0
  1 22  1  0
  1 23  1  0
  7 24  1  0
  7 25  1  0
 11 26  1  0
 11 27  1  0
 11 28  1  0
 12 29  1  0
 12 30  1  0
 14 31  1  0
 15 32  1  0
 16 33  1  0
 17 34  1  0
 18 35  1  0
 19 36  1  0
 19 37  1  0
 20 38  1  0
 20 39  1  0
M  END
>  <Energy>  (87) 
38.003380846577421

>  <compound_id>  (87) 
3922

>  <target_id>  (87) 
1

>  <reference_id>  (87) 
200

>  <inspiration_ids>  (87) 
[135, 200]

>  <energy_score>  (87) 
-27.722368929281743

>  <distance_score>  (87) 
1.1977204523094425

>  <path>  (87) 
/opt/xchem-fragalysis-2/maxwin/BulkDock/SCRATCH/505735/C3922-P200/C3922-P200.minimised.mol

>  <scratch_subdir>  (87) 
/opt/xchem-fragalysis-2/maxwin/BulkDock/SCRATCH/505735/C3922-P200

>  <fragmenstein_runtime>  (87) 
4.550377607345581

>  <fragmenstein_outcome>  (87) 
too moved

>  <fragmenstein_mode>  (87) 
expansion

>  <fragmenstein_error>  (87) 


$$$$
C1620-P135
     RDKit          3D

 61 65  0  0  0  0  0  0  0  0999 V2000
    3.3127   -4.8316   34.5564 C   0  0  0  0  0  0  0  0  0  0  0  0
    2.0701   -4.1677   35.1176 C   0  0  0  0  0  0  0  0  0  0  0  0
    0.7251   -4.0565   33.9375 S   0  0  0  0  0  0  0  0  0  0  0  0
   -0.4415   -3.7077   34.7164 O   0  0  0  0  0  0  0  0  0  0  0  0
    1.3031   -3.3037   32.7233 N   0  0  0  0  0  0  0  0  0  0  0  0
    0.7392   -2.0654   32.0772 C   0  0  0  0  0  0  0  0  0  0  0  0
   -0.4280   -1.5131   32.6007 C   0  0  0  0  0  0  0  0  0  0  0  0
   -1.1459   -0.5321   31.9309 C   0  0  0  0  0  0  0  0  0  0  0  0
   -2.3274    0.0379   32.6252 C   0  0  0  0  0  0  0  0  0  0  0  0
   -3.3743   -0.0439   32.1269 O   0  0  0  0  0  0  0  0  0  0  0  0
   -1.9134    0.6288   33.9836 N   0  0  0  0  0  0  0  0  0  0  0  0
   -2.6857    1.3264   34.9702 C   0  0  0  0  0  0  0  0  0  0  0  0
   -0.7667   -0.1458   30.6545 C   0  0  0  0  0  0  0  0  0  0  0  0
    0.4581   -0.5988   30.1526 C   0  0  0  0  0  0  0  0  0  0  0  0
    1.2870   -1.4843   30.8969 C   0  0  0  0  0  0  0  0  0  0  0  0
    2.7110   -1.6945   30.4588 C   0  0  0  0  0  0  0  0  0  0  0  0
    3.4930   -2.9257   30.6653 C   0  0  0  0  0  0  0  0  0  0  0  0
    4.7937   -3.0421   30.3372 C   0  0  0  0  0  0  0  0  0  0  0  0
    5.4638   -1.9446   29.7480 C   0  0  0  0  0  0  0  0  0  0  0  0
    6.6957   -1.7741   29.3252 N   0  0  0  0  0  0  0  0  0  0  0  0
    6.7968   -0.4853   28.8488 N   0  0  0  0  0  0  0  0  0  0  0  0
    5.6316    0.1068   28.9967 C   0  0  0  0  0  0  0  0  0  0  0  0
    5.3240    1.3851   28.6793 N   0  0  0  0  0  0  0  0  0  0  0  0
    4.7328   -0.7859   29.5561 N   0  0  0  0  0  0  0  0  0  0  0  0
    3.3877   -0.6544   29.9090 C   0  0  0  0  0  0  0  0  0  0  0  0
    0.3759   -5.7085   33.5367 N   0  0  0  0  0  0  0  0  0  0  0  0
   -0.6919   -6.0419   32.5992 C   0  0  0  0  0  0  0  0  0  0  0  0
   -0.2956   -5.6368   31.2134 C   0  0  0  0  0  0  0  0  0  0  0  0
   -0.7585   -4.4361   30.6500 C   0  0  0  0  0  0  0  0  0  0  0  0
   -0.1688   -3.9124   29.4996 C   0  0  0  0  0  0  0  0  0  0  0  0
    0.9523   -4.5412   29.0173 C   0  0  0  0  0  0  0  0  0  0  0  0
    1.3609   -5.7510   29.5164 C   0  0  0  0  0  0  0  0  0  0  0  0
    0.7075   -6.3533   30.5664 C   0  0  0  0  0  0  0  0  0  0  0  0
    2.4289   -6.2529   28.8344 O   0  0  0  0  0  0  0  0  0  0  0  0
    2.7373   -5.1480   27.9594 C   0  0  0  0  0  0  0  0  0  0  0  0
    1.7470   -4.1065   28.0018 O   0  0  0  0  0  0  0  0  0  0  0  0
    3.1016   -5.8470   34.2074 H   0  0  0  0  0  0  0  0  0  0  0  0
    3.7244   -4.2666   33.7149 H   0  0  0  0  0  0  0  0  0  0  0  0
    4.0865   -4.8941   35.3278 H   0  0  0  0  0  0  0  0  0  0  0  0
    1.6961   -4.7312   35.9787 H   0  0  0  0  0  0  0  0  0  0  0  0
    2.2900   -3.1481   35.4503 H   0  0  0  0  0  0  0  0  0  0  0  0
   -0.8464   -1.8606   33.5376 H   0  0  0  0  0  0  0  0  0  0  0  0
   -0.9251    0.4608   34.1389 H   0  0  0  0  0  0  0  0  0  0  0  0
   -2.2444    2.3136   35.1225 H   0  0  0  0  0  0  0  0  0  0  0  0
   -3.7176    1.4236   34.6261 H   0  0  0  0  0  0  0  0  0  0  0  0
   -2.6511    0.7591   35.9027 H   0  0  0  0  0  0  0  0  0  0  0  0
   -1.3717    0.5527   30.0805 H   0  0  0  0  0  0  0  0  0  0  0  0
    0.7765   -0.2308   29.1776 H   0  0  0  0  0  0  0  0  0  0  0  0
    2.9918   -3.7839   31.0986 H   0  0  0  0  0  0  0  0  0  0  0  0
    5.3424   -3.9609   30.5063 H   0  0  0  0  0  0  0  0  0  0  0  0
    4.6112    1.8744   29.2086 H   0  0  0  0  0  0  0  0  0  0  0  0
    6.1336    1.9746   28.4987 H   0  0  0  0  0  0  0  0  0  0  0  0
    2.9563    0.3205   29.7273 H   0  0  0  0  0  0  0  0  0  0  0  0
    0.0666   -6.0736   34.4332 H   0  0  0  0  0  0  0  0  0  0  0  0
   -1.6025   -5.5404   32.9093 H   0  0  0  0  0  0  0  0  0  0  0  0
   -0.8904   -7.1197   32.6250 H   0  0  0  0  0  0  0  0  0  0  0  0
   -1.5495   -3.8666   31.1319 H   0  0  0  0  0  0  0  0  0  0  0  0
   -0.5397   -3.0037   29.0388 H   0  0  0  0  0  0  0  0  0  0  0  0
    1.0085   -7.3051   30.9699 H   0  0  0  0  0  0  0  0  0  0  0  0
    2.8063   -5.5266   26.9333 H   0  0  0  0  0  0  0  0  0  0  0  0
    3.7138   -4.7358   28.2334 H   0  0  0  0  0  0  0  0  0  0  0  0
  1  2  1  0
  2  3  1  0
  3  4  2  0
  3  5  2  0
  5  6  1  0
  6  7  2  0
  7  8  1  0
  8  9  1  0
  9 10  2  0
  9 11  1  0
 11 12  1  0
  8 13  2  0
 13 14  1  0
 14 15  2  0
 15 16  1  0
 16 17  1  0
 17 18  2  0
 18 19  1  0
 19 20  2  0
 20 21  1  0
 21 22  2  0
 22 23  1  0
 22 24  1  0
 24 25  1  0
  3 26  1  0
 26 27  1  0
 27 28  1  0
 28 29  2  0
 29 30  1  0
 30 31  2  0
 31 32  1  0
 32 33  2  0
 32 34  1  0
 34 35  1  0
 35 36  1  0
 15  6  1  0
 25 16  2  0
 33 28  1  0
 24 19  1  0
 36 31  1  0
  1 37  1  0
  1 38  1  0
  1 39  1  0
  2 40  1  0
  2 41  1  0
  7 42  1  0
 11 43  1  0
 12 44  1  0
 12 45  1  0
 12 46  1  0
 13 47  1  0
 14 48  1  0
 17 49  1  0
 18 50  1  0
 23 51  1  0
 23 52  1  0
 25 53  1  0
 26 54  1  0
 27 55  1  0
 27 56  1  0
 29 57  1  0
 30 58  1  0
 33 59  1  0
 35 60  1  0
 35 61  1  0
M  END
>  <Energy>  (88) 
-5.0025265531622525

>  <compound_id>  (88) 
1620

>  <target_id>  (88) 
1

>  <reference_id>  (88) 
135

>  <inspiration_ids>  (88) 
[135, 201]

>  <energy_score>  (88) 
-27.935079324407553

>  <distance_score>  (88) 
2.8580373874419247

>  <path>  (88) 
/opt/xchem-fragalysis-2/maxwin/BulkDock/SCRATCH/505735/C1620-P135/C1620-P135.minimised.mol

>  <scratch_subdir>  (88) 
/opt/xchem-fragalysis-2/maxwin/BulkDock/SCRATCH/505735/C1620-P135

>  <fragmenstein_runtime>  (88) 
11.903167009353638

>  <fragmenstein_outcome>  (88) 
too moved

>  <fragmenstein_mode>  (88) 
expansion

>  <fragmenstein_error>  (88) 


$$$$
C1620-P201
     RDKit          3D

 61 65  0  0  0  0  0  0  0  0999 V2000
   -1.8434   -2.3435   35.2272 C   0  0  0  0  0  0  0  0  0  0  0  0
   -1.0176   -1.9966   34.0162 C   0  0  0  0  0  0  0  0  0  0  0  0
   -0.9968   -3.1501   32.6277 S   0  0  0  0  0  0  0  0  0  0  0  0
   -2.3216   -3.1895   32.0382 O   0  0  0  0  0  0  0  0  0  0  0  0
    0.3180   -2.8127   31.8664 N   0  0  0  0  0  0  0  0  0  0  0  0
    0.4223   -1.5852   31.0244 C   0  0  0  0  0  0  0  0  0  0  0  0
    0.3726   -0.3344   31.6277 C   0  0  0  0  0  0  0  0  0  0  0  0
    0.3447    0.8308   30.8621 C   0  0  0  0  0  0  0  0  0  0  0  0
    0.4685    2.1349   31.5868 C   0  0  0  0  0  0  0  0  0  0  0  0
    0.0439    2.1922   32.6701 O   0  0  0  0  0  0  0  0  0  0  0  0
    1.1507    3.2097   30.7260 N   0  0  0  0  0  0  0  0  0  0  0  0
    1.5395    4.5522   31.0470 C   0  0  0  0  0  0  0  0  0  0  0  0
    0.1936    0.7238   29.4812 C   0  0  0  0  0  0  0  0  0  0  0  0
    0.4170   -0.5036   28.8698 C   0  0  0  0  0  0  0  0  0  0  0  0
    0.7672   -1.6096   29.6636 C   0  0  0  0  0  0  0  0  0  0  0  0
    2.0217   -2.2930   29.1944 C   0  0  0  0  0  0  0  0  0  0  0  0
    2.2500   -2.6942   27.8065 C   0  0  0  0  0  0  0  0  0  0  0  0
    3.4713   -2.9378   27.2944 C   0  0  0  0  0  0  0  0  0  0  0  0
    4.5994   -2.9016   28.1517 C   0  0  0  0  0  0  0  0  0  0  0  0
    5.8763   -3.1449   27.9605 N   0  0  0  0  0  0  0  0  0  0  0  0
    6.5171   -2.9804   29.1700 N   0  0  0  0  0  0  0  0  0  0  0  0
    5.6242   -2.6305   30.0701 C   0  0  0  0  0  0  0  0  0  0  0  0
    5.8460   -2.3592   31.3761 N   0  0  0  0  0  0  0  0  0  0  0  0
    4.3748   -2.5764   29.4786 N   0  0  0  0  0  0  0  0  0  0  0  0
    3.1187   -2.2451   29.9892 C   0  0  0  0  0  0  0  0  0  0  0  0
   -0.8323   -4.7376   33.3013 N   0  0  0  0  0  0  0  0  0  0  0  0
   -0.8057   -5.9570   32.4906 C   0  0  0  0  0  0  0  0  0  0  0  0
    0.4178   -6.0248   31.6253 C   0  0  0  0  0  0  0  0  0  0  0  0
    1.6177   -5.4495   32.0928 C   0  0  0  0  0  0  0  0  0  0  0  0
    2.6948   -5.2490   31.2447 C   0  0  0  0  0  0  0  0  0  0  0  0
    2.5903   -5.7256   29.9648 C   0  0  0  0  0  0  0  0  0  0  0  0
    1.4858   -6.4226   29.5461 C   0  0  0  0  0  0  0  0  0  0  0  0
    0.3748   -6.5891   30.3474 C   0  0  0  0  0  0  0  0  0  0  0  0
    1.7002   -6.9864   28.3227 O   0  0  0  0  0  0  0  0  0  0  0  0
    2.9196   -6.3282   27.9285 C   0  0  0  0  0  0  0  0  0  0  0  0
    3.5899   -5.7256   29.0411 O   0  0  0  0  0  0  0  0  0  0  0  0
   -1.5563   -3.3060   35.6574 H   0  0  0  0  0  0  0  0  0  0  0  0
   -2.9093   -2.3379   34.9877 H   0  0  0  0  0  0  0  0  0  0  0  0
   -1.6933   -1.5860   36.0045 H   0  0  0  0  0  0  0  0  0  0  0  0
   -1.3896   -1.0468   33.6207 H   0  0  0  0  0  0  0  0  0  0  0  0
    0.0232   -1.8697   34.3337 H   0  0  0  0  0  0  0  0  0  0  0  0
    0.4176   -0.2443   32.7066 H   0  0  0  0  0  0  0  0  0  0  0  0
    1.4705    2.7960   29.8606 H   0  0  0  0  0  0  0  0  0  0  0  0
    2.6243    4.5774   31.1712 H   0  0  0  0  0  0  0  0  0  0  0  0
    1.0535    4.8605   31.9752 H   0  0  0  0  0  0  0  0  0  0  0  0
    1.2458    5.2078   30.2248 H   0  0  0  0  0  0  0  0  0  0  0  0
    0.0218    1.5994   28.8585 H   0  0  0  0  0  0  0  0  0  0  0  0
    0.5232   -0.5237   27.7863 H   0  0  0  0  0  0  0  0  0  0  0  0
    1.3692   -2.7506   27.1921 H   0  0  0  0  0  0  0  0  0  0  0  0
    3.6191   -3.1927   26.2518 H   0  0  0  0  0  0  0  0  0  0  0  0
    5.2468   -1.6976   31.8568 H   0  0  0  0  0  0  0  0  0  0  0  0
    6.8265   -2.2323   31.6163 H   0  0  0  0  0  0  0  0  0  0  0  0
    3.1005   -1.9193   31.0207 H   0  0  0  0  0  0  0  0  0  0  0  0
   -1.6571   -4.8091   33.9028 H   0  0  0  0  0  0  0  0  0  0  0  0
   -1.6967   -6.0107   31.8657 H   0  0  0  0  0  0  0  0  0  0  0  0
   -0.8105   -6.8294   33.1537 H   0  0  0  0  0  0  0  0  0  0  0  0
    1.6835   -5.0564   33.1061 H   0  0  0  0  0  0  0  0  0  0  0  0
    3.5967   -4.7614   31.5953 H   0  0  0  0  0  0  0  0  0  0  0  0
   -0.5036   -7.1158   29.9974 H   0  0  0  0  0  0  0  0  0  0  0  0
    2.6808   -5.5723   27.1732 H   0  0  0  0  0  0  0  0  0  0  0  0
    3.5862   -7.0586   27.4600 H   0  0  0  0  0  0  0  0  0  0  0  0
  1  2  1  0
  2  3  1  0
  3  4  2  0
  3  5  2  0
  5  6  1  0
  6  7  2  0
  7  8  1  0
  8  9  1  0
  9 10  2  0
  9 11  1  0
 11 12  1  0
  8 13  2  0
 13 14  1  0
 14 15  2  0
 15 16  1  0
 16 17  1  0
 17 18  2  0
 18 19  1  0
 19 20  2  0
 20 21  1  0
 21 22  2  0
 22 23  1  0
 22 24  1  0
 24 25  1  0
  3 26  1  0
 26 27  1  0
 27 28  1  0
 28 29  2  0
 29 30  1  0
 30 31  2  0
 31 32  1  0
 32 33  2  0
 32 34  1  0
 34 35  1  0
 35 36  1  0
 15  6  1  0
 25 16  2  0
 33 28  1  0
 24 19  1  0
 36 31  1  0
  1 37  1  0
  1 38  1  0
  1 39  1  0
  2 40  1  0
  2 41  1  0
  7 42  1  0
 11 43  1  0
 12 44  1  0
 12 45  1  0
 12 46  1  0
 13 47  1  0
 14 48  1  0
 17 49  1  0
 18 50  1  0
 23 51  1  0
 23 52  1  0
 25 53  1  0
 26 54  1  0
 27 55  1  0
 27 56  1  0
 29 57  1  0
 30 58  1  0
 33 59  1  0
 35 60  1  0
 35 61  1  0
M  END
>  <Energy>  (89) 
14.074490516271437

>  <compound_id>  (89) 
1620

>  <target_id>  (89) 
1

>  <reference_id>  (89) 
201

>  <inspiration_ids>  (89) 
[135, 201]

>  <energy_score>  (89) 
-8.858062254972538

>  <distance_score>  (89) 
3.357060113843599

>  <path>  (89) 
/opt/xchem-fragalysis-2/maxwin/BulkDock/SCRATCH/505735/C1620-P201/C1620-P201.minimised.mol

>  <scratch_subdir>  (89) 
/opt/xchem-fragalysis-2/maxwin/BulkDock/SCRATCH/505735/C1620-P201

>  <fragmenstein_runtime>  (89) 
14.075175285339355

>  <fragmenstein_outcome>  (89) 
too moved

>  <fragmenstein_mode>  (89) 
expansion

>  <fragmenstein_error>  (89) 


$$$$
C110-P135
     RDKit          3D

 33 35  0  0  0  0  0  0  0  0999 V2000
   -1.5486    3.2969   27.3175 C   0  0  0  0  0  0  0  0  0  0  0  0
   -1.3349    2.0932   28.0670 N   0  0  0  0  0  0  0  0  0  0  0  0
   -0.1321    1.6427   28.9108 C   0  0  0  0  0  0  0  0  0  0  0  0
    0.8453    2.2089   29.1950 O   0  0  0  0  0  0  0  0  0  0  0  0
   -0.3156    0.2620   29.4538 C   0  0  0  0  0  0  0  0  0  0  0  0
    0.1907   -0.0181   30.7312 C   0  0  0  0  0  0  0  0  0  0  0  0
    0.2012   -1.3261   31.2176 C   0  0  0  0  0  0  0  0  0  0  0  0
   -0.2842   -2.3695   30.4275 C   0  0  0  0  0  0  0  0  0  0  0  0
   -0.0710   -3.7973   30.7805 C   0  0  0  0  0  0  0  0  0  0  0  0
    0.7502   -4.6196   29.8817 C   0  0  0  0  0  0  0  0  0  0  0  0
    0.8061   -5.9551   29.9813 C   0  0  0  0  0  0  0  0  0  0  0  0
    0.0430   -6.6080   30.9713 C   0  0  0  0  0  0  0  0  0  0  0  0
   -0.3040   -7.8611   31.1435 N   0  0  0  0  0  0  0  0  0  0  0  0
   -0.8841   -7.9539   32.3812 N   0  0  0  0  0  0  0  0  0  0  0  0
   -0.9065   -6.7539   32.9192 C   0  0  0  0  0  0  0  0  0  0  0  0
   -1.2346   -6.4625   34.1926 N   0  0  0  0  0  0  0  0  0  0  0  0
   -0.4976   -5.8200   31.9763 N   0  0  0  0  0  0  0  0  0  0  0  0
   -0.5846   -4.4140   31.8759 C   0  0  0  0  0  0  0  0  0  0  0  0
   -0.8421   -2.0746   29.1716 C   0  0  0  0  0  0  0  0  0  0  0  0
   -0.8559   -0.7696   28.6827 C   0  0  0  0  0  0  0  0  0  0  0  0
   -0.6213    3.8726   27.2811 H   0  0  0  0  0  0  0  0  0  0  0  0
   -1.8673    3.0268   26.3085 H   0  0  0  0  0  0  0  0  0  0  0  0
   -2.3278    3.8829   27.8070 H   0  0  0  0  0  0  0  0  0  0  0  0
   -2.0500    1.3783   28.0900 H   0  0  0  0  0  0  0  0  0  0  0  0
    0.6364    0.7803   31.3224 H   0  0  0  0  0  0  0  0  0  0  0  0
    0.6628   -1.5301   32.1809 H   0  0  0  0  0  0  0  0  0  0  0  0
    1.3323   -4.1057   29.1198 H   0  0  0  0  0  0  0  0  0  0  0  0
    1.4265   -6.5405   29.3178 H   0  0  0  0  0  0  0  0  0  0  0  0
   -1.5967   -7.2559   34.7159 H   0  0  0  0  0  0  0  0  0  0  0  0
   -1.7534   -5.6024   34.3858 H   0  0  0  0  0  0  0  0  0  0  0  0
   -1.1469   -3.9044   32.6480 H   0  0  0  0  0  0  0  0  0  0  0  0
   -1.2214   -2.8706   28.5309 H   0  0  0  0  0  0  0  0  0  0  0  0
   -1.2098   -0.5979   27.6681 H   0  0  0  0  0  0  0  0  0  0  0  0
  1  2  1  0
  2  3  1  0
  3  4  2  0
  3  5  1  0
  5  6  2  0
  6  7  1  0
  7  8  2  0
  8  9  1  0
  9 10  1  0
 10 11  2  0
 11 12  1  0
 12 13  2  0
 13 14  1  0
 14 15  2  0
 15 16  1  0
 15 17  1  0
 17 18  1  0
  8 19  1  0
 19 20  2  0
 20  5  1  0
 18  9  2  0
 17 12  1  0
  1 21  1  0
  1 22  1  0
  1 23  1  0
  2 24  1  0
  6 25  1  0
  7 26  1  0
 10 27  1  0
 11 28  1  0
 16 29  1  0
 16 30  1  0
 18 31  1  0
 19 32  1  0
 20 33  1  0
M  END
>  <Energy>  (90) 
64.880068633143125

>  <compound_id>  (90) 
110

>  <target_id>  (90) 
1

>  <reference_id>  (90) 
135

>  <inspiration_ids>  (90) 
[135, 202]

>  <energy_score>  (90) 
-8.143104928257173

>  <distance_score>  (90) 
4.343687502243494

>  <path>  (90) 
/opt/xchem-fragalysis-2/maxwin/BulkDock/SCRATCH/505735/C110-P135/C110-P135.minimised.mol

>  <scratch_subdir>  (90) 
/opt/xchem-fragalysis-2/maxwin/BulkDock/SCRATCH/505735/C110-P135

>  <fragmenstein_runtime>  (90) 
12.891340732574463

>  <fragmenstein_outcome>  (90) 
too moved

>  <fragmenstein_mode>  (90) 
expansion

>  <fragmenstein_error>  (90) 


$$$$
C110-P202
     RDKit          3D

 33 35  0  0  0  0  0  0  0  0999 V2000
   -1.5484    3.2934   27.3470 C   0  0  0  0  0  0  0  0  0  0  0  0
   -1.3282    2.0851   28.0869 N   0  0  0  0  0  0  0  0  0  0  0  0
   -0.1157    1.6267   28.9120 C   0  0  0  0  0  0  0  0  0  0  0  0
    0.8669    2.1885   29.1862 O   0  0  0  0  0  0  0  0  0  0  0  0
   -0.2965    0.2423   29.4458 C   0  0  0  0  0  0  0  0  0  0  0  0
    0.2075   -0.0464   30.7216 C   0  0  0  0  0  0  0  0  0  0  0  0
    0.2143   -1.3582   31.1988 C   0  0  0  0  0  0  0  0  0  0  0  0
   -0.2705   -2.3973   30.4014 C   0  0  0  0  0  0  0  0  0  0  0  0
   -0.0759   -3.8278   30.7577 C   0  0  0  0  0  0  0  0  0  0  0  0
    0.7243   -4.6737   29.8609 C   0  0  0  0  0  0  0  0  0  0  0  0
    0.7764   -6.0081   29.9858 C   0  0  0  0  0  0  0  0  0  0  0  0
    0.0300   -6.6391   31.0023 C   0  0  0  0  0  0  0  0  0  0  0  0
   -0.2957   -7.8915   31.2156 N   0  0  0  0  0  0  0  0  0  0  0  0
   -0.8780   -7.9534   32.4539 N   0  0  0  0  0  0  0  0  0  0  0  0
   -0.9219   -6.7377   32.9539 C   0  0  0  0  0  0  0  0  0  0  0  0
   -1.2720   -6.4105   34.2124 N   0  0  0  0  0  0  0  0  0  0  0  0
   -0.5107   -5.8282   31.9890 N   0  0  0  0  0  0  0  0  0  0  0  0
   -0.5916   -4.4246   31.8628 C   0  0  0  0  0  0  0  0  0  0  0  0
   -0.8213   -2.0932   29.1453 C   0  0  0  0  0  0  0  0  0  0  0  0
   -0.8342   -0.7842   28.6662 C   0  0  0  0  0  0  0  0  0  0  0  0
   -2.3011    3.8902   27.8642 H   0  0  0  0  0  0  0  0  0  0  0  0
   -0.6141    3.8551   27.2810 H   0  0  0  0  0  0  0  0  0  0  0  0
   -1.9051    3.0307   26.3488 H   0  0  0  0  0  0  0  0  0  0  0  0
   -2.0450    1.3720   28.1156 H   0  0  0  0  0  0  0  0  0  0  0  0
    0.6506    0.7476   31.3202 H   0  0  0  0  0  0  0  0  0  0  0  0
    0.6696   -1.5684   32.1639 H   0  0  0  0  0  0  0  0  0  0  0  0
    1.2955   -4.1788   29.0785 H   0  0  0  0  0  0  0  0  0  0  0  0
    1.3812   -6.6124   29.3246 H   0  0  0  0  0  0  0  0  0  0  0  0
   -1.6326   -7.1871   34.7605 H   0  0  0  0  0  0  0  0  0  0  0  0
   -1.7675   -5.5344   34.3895 H   0  0  0  0  0  0  0  0  0  0  0  0
   -1.1439   -3.8978   32.6306 H   0  0  0  0  0  0  0  0  0  0  0  0
   -1.2017   -2.8840   28.4992 H   0  0  0  0  0  0  0  0  0  0  0  0
   -1.1889   -0.6044   27.6533 H   0  0  0  0  0  0  0  0  0  0  0  0
  1  2  1  0
  2  3  1  0
  3  4  2  0
  3  5  1  0
  5  6  2  0
  6  7  1  0
  7  8  2  0
  8  9  1  0
  9 10  1  0
 10 11  2  0
 11 12  1  0
 12 13  2  0
 13 14  1  0
 14 15  2  0
 15 16  1  0
 15 17  1  0
 17 18  1  0
  8 19  1  0
 19 20  2  0
 20  5  1  0
 18  9  2  0
 17 12  1  0
  1 21  1  0
  1 22  1  0
  1 23  1  0
  2 24  1  0
  6 25  1  0
  7 26  1  0
 10 27  1  0
 11 28  1  0
 16 29  1  0
 16 30  1  0
 18 31  1  0
 19 32  1  0
 20 33  1  0
M  END
>  <Energy>  (91) 
63.47945813443949

>  <compound_id>  (91) 
110

>  <target_id>  (91) 
1

>  <reference_id>  (91) 
202

>  <inspiration_ids>  (91) 
[135, 202]

>  <energy_score>  (91) 
-9.543715426962137

>  <distance_score>  (91) 
4.317714524563639

>  <path>  (91) 
/opt/xchem-fragalysis-2/maxwin/BulkDock/SCRATCH/505735/C110-P202/C110-P202.minimised.mol

>  <scratch_subdir>  (91) 
/opt/xchem-fragalysis-2/maxwin/BulkDock/SCRATCH/505735/C110-P202

>  <fragmenstein_runtime>  (91) 
12.416853666305542

>  <fragmenstein_outcome>  (91) 
too moved

>  <fragmenstein_mode>  (91) 
expansion

>  <fragmenstein_error>  (91) 


$$$$
C3923-P136
     RDKit          3D

 48 51  0  0  0  0  0  0  0  0999 V2000
    5.2294    1.0061   37.7330 C   0  0  0  0  0  0  0  0  0  0  0  0
    4.5923    0.1292   36.7946 N   0  0  0  0  0  0  0  0  0  0  0  0
    4.8086   -0.0422   35.2811 C   0  0  0  0  0  0  0  0  0  0  0  0
    5.5908    0.4463   34.5705 O   0  0  0  0  0  0  0  0  0  0  0  0
    3.8487   -1.0282   34.7110 C   0  0  0  0  0  0  0  0  0  0  0  0
    3.6580   -2.2821   35.2968 C   0  0  0  0  0  0  0  0  0  0  0  0
    2.7617   -3.1977   34.7363 C   0  0  0  0  0  0  0  0  0  0  0  0
    2.0735   -2.8901   33.5603 C   0  0  0  0  0  0  0  0  0  0  0  0
    1.0545   -3.8146   32.9229 C   0  0  0  0  0  0  0  0  0  0  0  0
    1.2086   -3.8728   31.3806 C   0  0  0  0  0  0  0  0  0  0  0  0
   -0.1520   -4.2577   30.7662 C   0  0  0  0  0  0  0  0  0  0  0  0
   -0.0917   -4.1039   29.2410 C   0  0  0  0  0  0  0  0  0  0  0  0
   -0.3572   -2.6205   28.9461 C   0  0  0  0  0  0  0  0  0  0  0  0
   -0.8726   -2.0361   30.1891 N   0  0  0  0  0  0  0  0  0  0  0  0
   -1.2310   -3.1825   31.0289 C   0  0  0  0  0  0  0  0  0  0  0  0
   -0.5004   -5.6222   31.3487 C   0  0  0  0  0  0  0  0  0  0  0  0
   -1.0472   -6.6949   30.8079 N   0  0  0  0  0  0  0  0  0  0  0  0
   -1.2852   -7.6196   31.8099 N   0  0  0  0  0  0  0  0  0  0  0  0
   -0.8215   -7.1297   32.9361 C   0  0  0  0  0  0  0  0  0  0  0  0
   -0.8339   -7.6730   34.1706 N   0  0  0  0  0  0  0  0  0  0  0  0
   -0.1915   -5.9439   32.6595 N   0  0  0  0  0  0  0  0  0  0  0  0
    0.8210   -5.2555   33.4611 C   0  0  0  0  0  0  0  0  0  0  0  0
    2.0180   -6.1132   33.3865 N   0  0  0  0  0  0  0  0  0  0  0  0
    2.2517   -1.6025   33.0070 C   0  0  0  0  0  0  0  0  0  0  0  0
    3.1455   -0.6888   33.5583 C   0  0  0  0  0  0  0  0  0  0  0  0
    4.4663    1.6406   38.1888 H   0  0  0  0  0  0  0  0  0  0  0  0
    5.7120    0.3997   38.5025 H   0  0  0  0  0  0  0  0  0  0  0  0
    5.9707    1.6196   37.2166 H   0  0  0  0  0  0  0  0  0  0  0  0
    3.8726   -0.5099   37.1075 H   0  0  0  0  0  0  0  0  0  0  0  0
    4.2180   -2.5633   36.1858 H   0  0  0  0  0  0  0  0  0  0  0  0
    2.6151   -4.1357   35.2619 H   0  0  0  0  0  0  0  0  0  0  0  0
    0.1295   -3.2913   33.1844 H   0  0  0  0  0  0  0  0  0  0  0  0
    1.9804   -4.6066   31.1064 H   0  0  0  0  0  0  0  0  0  0  0  0
    1.5646   -2.9365   30.9451 H   0  0  0  0  0  0  0  0  0  0  0  0
    0.8655   -4.4331   28.8239 H   0  0  0  0  0  0  0  0  0  0  0  0
   -0.8869   -4.6894   28.7803 H   0  0  0  0  0  0  0  0  0  0  0  0
   -1.0955   -2.4997   28.1513 H   0  0  0  0  0  0  0  0  0  0  0  0
    0.5611   -2.1091   28.6391 H   0  0  0  0  0  0  0  0  0  0  0  0
   -0.1392   -1.4799   30.6215 H   0  0  0  0  0  0  0  0  0  0  0  0
   -1.3591   -2.8693   32.0655 H   0  0  0  0  0  0  0  0  0  0  0  0
   -2.2178   -3.5259   30.7274 H   0  0  0  0  0  0  0  0  0  0  0  0
   -1.1379   -7.0977   34.9482 H   0  0  0  0  0  0  0  0  0  0  0  0
   -1.2970   -8.5929   34.2424 H   0  0  0  0  0  0  0  0  0  0  0  0
    0.4541   -5.2157   34.4935 H   0  0  0  0  0  0  0  0  0  0  0  0
    1.7775   -6.9935   33.8454 H   0  0  0  0  0  0  0  0  0  0  0  0
    2.7861   -5.7030   33.9078 H   0  0  0  0  0  0  0  0  0  0  0  0
    1.6864   -1.2703   32.1401 H   0  0  0  0  0  0  0  0  0  0  0  0
    3.2874    0.2870   33.0982 H   0  0  0  0  0  0  0  0  0  0  0  0
  1  2  1  0
  2  3  1  0
  3  4  2  0
  3  5  1  0
  5  6  2  0
  6  7  1  0
  7  8  2  0
  8  9  1  0
  9 10  1  0
 10 11  1  0
 11 12  1  0
 12 13  1  0
 13 14  1  0
 14 15  1  0
 11 16  1  0
 16 17  2  0
 17 18  1  0
 18 19  2  0
 19 20  1  0
 19 21  1  0
 21 22  1  0
 22 23  1  0
  8 24  1  0
 24 25  2  0
 25  5  1  0
 22  9  1  0
 15 11  1  0
 21 16  1  0
  1 26  1  0
  1 27  1  0
  1 28  1  0
  2 29  1  0
  6 30  1  0
  7 31  1  0
  9 32  1  0
 10 33  1  0
 10 34  1  0
 12 35  1  0
 12 36  1  0
 13 37  1  0
 13 38  1  0
 14 39  1  0
 15 40  1  0
 15 41  1  0
 20 42  1  0
 20 43  1  0
 22 44  1  0
 23 45  1  0
 23 46  1  0
 24 47  1  0
 25 48  1  0
M  END
>  <Energy>  (92) 
78.345663006573346

>  <compound_id>  (92) 
3923

>  <target_id>  (92) 
1

>  <reference_id>  (92) 
136

>  <inspiration_ids>  (92) 
[136, 13]

>  <energy_score>  (92) 
-23.79745957070395

>  <distance_score>  (92) 
2.177945242373656

>  <path>  (92) 
/opt/xchem-fragalysis-2/maxwin/BulkDock/SCRATCH/505735/C3923-P136/C3923-P136.minimised.mol

>  <scratch_subdir>  (92) 
/opt/xchem-fragalysis-2/maxwin/BulkDock/SCRATCH/505735/C3923-P136

>  <fragmenstein_runtime>  (92) 
10.231897592544556

>  <fragmenstein_outcome>  (92) 
too moved

>  <fragmenstein_mode>  (92) 
expansion

>  <fragmenstein_error>  (92) 


$$$$
C3923-P13
     RDKit          3D

 48 51  0  0  0  0  0  0  0  0999 V2000
    5.0172    2.2632   36.1637 C   0  0  0  0  0  0  0  0  0  0  0  0
    4.3835    1.0870   35.6426 N   0  0  0  0  0  0  0  0  0  0  0  0
    4.9911   -0.2192   35.1013 C   0  0  0  0  0  0  0  0  0  0  0  0
    6.0983   -0.5780   35.0638 O   0  0  0  0  0  0  0  0  0  0  0  0
    3.9347   -1.1249   34.5624 C   0  0  0  0  0  0  0  0  0  0  0  0
    3.9910   -2.4832   34.8898 C   0  0  0  0  0  0  0  0  0  0  0  0
    3.0433   -3.3802   34.3910 C   0  0  0  0  0  0  0  0  0  0  0  0
    2.0320   -2.9296   33.5468 C   0  0  0  0  0  0  0  0  0  0  0  0
    0.9790   -3.8206   32.9303 C   0  0  0  0  0  0  0  0  0  0  0  0
    1.1474   -3.8092   31.3906 C   0  0  0  0  0  0  0  0  0  0  0  0
   -0.1950   -4.1870   30.7410 C   0  0  0  0  0  0  0  0  0  0  0  0
   -0.1079   -4.0057   29.2217 C   0  0  0  0  0  0  0  0  0  0  0  0
   -0.3430   -2.5176   28.9415 C   0  0  0  0  0  0  0  0  0  0  0  0
   -0.9118   -1.9586   30.1735 N   0  0  0  0  0  0  0  0  0  0  0  0
   -1.2813   -3.1172   30.9956 C   0  0  0  0  0  0  0  0  0  0  0  0
   -0.5512   -5.5670   31.2880 C   0  0  0  0  0  0  0  0  0  0  0  0
   -1.0637   -6.6360   30.7089 N   0  0  0  0  0  0  0  0  0  0  0  0
   -1.3918   -7.5510   31.6944 N   0  0  0  0  0  0  0  0  0  0  0  0
   -0.9849   -7.0749   32.8491 C   0  0  0  0  0  0  0  0  0  0  0  0
   -1.1577   -7.5941   34.0788 N   0  0  0  0  0  0  0  0  0  0  0  0
   -0.2952   -5.9152   32.6047 N   0  0  0  0  0  0  0  0  0  0  0  0
    0.7124   -5.2651   33.4403 C   0  0  0  0  0  0  0  0  0  0  0  0
    1.8890   -6.1564   33.3935 N   0  0  0  0  0  0  0  0  0  0  0  0
    1.9793   -1.5526   33.2301 C   0  0  0  0  0  0  0  0  0  0  0  0
    2.9304   -0.6589   33.7140 C   0  0  0  0  0  0  0  0  0  0  0  0
    4.4976    2.5662   37.0750 H   0  0  0  0  0  0  0  0  0  0  0  0
    6.0672    2.0493   36.3745 H   0  0  0  0  0  0  0  0  0  0  0  0
    4.9439    3.0554   35.4153 H   0  0  0  0  0  0  0  0  0  0  0  0
    3.3922    1.1068   35.4422 H   0  0  0  0  0  0  0  0  0  0  0  0
    4.7890   -2.8483   35.5348 H   0  0  0  0  0  0  0  0  0  0  0  0
    3.1362   -4.4239   34.6751 H   0  0  0  0  0  0  0  0  0  0  0  0
    0.0598   -3.2903   33.2043 H   0  0  0  0  0  0  0  0  0  0  0  0
    1.9370   -4.5112   31.0884 H   0  0  0  0  0  0  0  0  0  0  0  0
    1.4905   -2.8370   31.0206 H   0  0  0  0  0  0  0  0  0  0  0  0
    0.8472   -4.3473   28.8108 H   0  0  0  0  0  0  0  0  0  0  0  0
   -0.9166   -4.5606   28.7485 H   0  0  0  0  0  0  0  0  0  0  0  0
   -1.0290   -2.3734   28.1026 H   0  0  0  0  0  0  0  0  0  0  0  0
    0.5978   -2.0119   28.6988 H   0  0  0  0  0  0  0  0  0  0  0  0
   -0.2030   -1.3928   30.6337 H   0  0  0  0  0  0  0  0  0  0  0  0
   -1.4194   -2.8175   32.0354 H   0  0  0  0  0  0  0  0  0  0  0  0
   -2.2633   -3.4590   30.6715 H   0  0  0  0  0  0  0  0  0  0  0  0
   -0.5544   -7.3615   34.8575 H   0  0  0  0  0  0  0  0  0  0  0  0
   -1.4542   -8.5808   34.1201 H   0  0  0  0  0  0  0  0  0  0  0  0
    0.3261   -5.2303   34.4652 H   0  0  0  0  0  0  0  0  0  0  0  0
    2.2345   -6.1998   32.4347 H   0  0  0  0  0  0  0  0  0  0  0  0
    1.5827   -7.1032   33.6146 H   0  0  0  0  0  0  0  0  0  0  0  0
    1.1942   -1.1612   32.5858 H   0  0  0  0  0  0  0  0  0  0  0  0
    2.8937    0.3827   33.4073 H   0  0  0  0  0  0  0  0  0  0  0  0
  1  2  1  0
  2  3  1  0
  3  4  2  0
  3  5  1  0
  5  6  2  0
  6  7  1  0
  7  8  2  0
  8  9  1  0
  9 10  1  0
 10 11  1  0
 11 12  1  0
 12 13  1  0
 13 14  1  0
 14 15  1  0
 11 16  1  0
 16 17  2  0
 17 18  1  0
 18 19  2  0
 19 20  1  0
 19 21  1  0
 21 22  1  0
 22 23  1  0
  8 24  1  0
 24 25  2  0
 25  5  1  0
 22  9  1  0
 15 11  1  0
 21 16  1  0
  1 26  1  0
  1 27  1  0
  1 28  1  0
  2 29  1  0
  6 30  1  0
  7 31  1  0
  9 32  1  0
 10 33  1  0
 10 34  1  0
 12 35  1  0
 12 36  1  0
 13 37  1  0
 13 38  1  0
 14 39  1  0
 15 40  1  0
 15 41  1  0
 20 42  1  0
 20 43  1  0
 22 44  1  0
 23 45  1  0
 23 46  1  0
 24 47  1  0
 25 48  1  0
M  END
>  <Energy>  (93) 
75.08083201528936

>  <compound_id>  (93) 
3923

>  <target_id>  (93) 
1

>  <reference_id>  (93) 
13

>  <inspiration_ids>  (93) 
[136, 13]

>  <energy_score>  (93) 
-27.06229056198896

>  <distance_score>  (93) 
2.149779838406246

>  <path>  (93) 
/opt/xchem-fragalysis-2/maxwin/BulkDock/SCRATCH/505735/C3923-P13/C3923-P13.minimised.mol

>  <scratch_subdir>  (93) 
/opt/xchem-fragalysis-2/maxwin/BulkDock/SCRATCH/505735/C3923-P13

>  <fragmenstein_runtime>  (93) 
9.475728511810303

>  <fragmenstein_outcome>  (93) 
too moved

>  <fragmenstein_mode>  (93) 
expansion

>  <fragmenstein_error>  (93) 


$$$$
C3925-P136
     RDKit          3D

 51 54  0  0  0  0  0  0  0  0999 V2000
   -4.2403    3.0405   36.1417 C   0  0  0  0  0  0  0  0  0  0  0  0
   -3.3182    1.9574   35.9553 N   0  0  0  0  0  0  0  0  0  0  0  0
   -2.1359    1.6004   36.6712 C   0  0  0  0  0  0  0  0  0  0  0  0
   -1.5648    2.1556   37.5620 O   0  0  0  0  0  0  0  0  0  0  0  0
   -1.5284    0.3222   36.1880 C   0  0  0  0  0  0  0  0  0  0  0  0
   -1.0186   -0.5791   37.1308 C   0  0  0  0  0  0  0  0  0  0  0  0
   -0.4357   -1.7787   36.7179 C   0  0  0  0  0  0  0  0  0  0  0  0
   -0.3443   -2.0853   35.3567 C   0  0  0  0  0  0  0  0  0  0  0  0
    0.3594   -3.2810   34.8897 C   0  0  0  0  0  0  0  0  0  0  0  0
    1.7889   -3.3150   35.0718 C   0  0  0  0  0  0  0  0  0  0  0  0
    2.6461   -4.2191   34.4276 C   0  0  0  0  0  0  0  0  0  0  0  0
    1.9631   -5.0362   33.5312 C   0  0  0  0  0  0  0  0  0  0  0  0
    2.4688   -5.7966   32.5599 N   0  0  0  0  0  0  0  0  0  0  0  0
    1.3895   -6.0323   31.7502 N   0  0  0  0  0  0  0  0  0  0  0  0
    1.5897   -5.9365   30.3564 C   0  0  0  0  0  0  0  0  0  0  0  0
    0.9103   -6.5472   29.5849 O   0  0  0  0  0  0  0  0  0  0  0  0
    2.6214   -4.9569   30.1356 N   0  0  0  0  0  0  0  0  0  0  0  0
    3.0773   -4.3557   28.9628 C   0  0  0  0  0  0  0  0  0  0  0  0
    3.3605   -2.9893   29.1211 C   0  0  0  0  0  0  0  0  0  0  0  0
    3.8573   -2.2387   28.0688 C   0  0  0  0  0  0  0  0  0  0  0  0
    4.1097   -0.9362   28.2462 F   0  0  0  0  0  0  0  0  0  0  0  0
    4.1231   -2.8298   26.8505 C   0  0  0  0  0  0  0  0  0  0  0  0
    3.8735   -4.1900   26.6901 C   0  0  0  0  0  0  0  0  0  0  0  0
    3.3388   -4.9729   27.7336 C   0  0  0  0  0  0  0  0  0  0  0  0
    3.3306   -6.4456   27.4945 C   0  0  0  0  0  0  0  0  0  0  0  0
    0.1891   -5.9536   32.4506 C   0  0  0  0  0  0  0  0  0  0  0  0
   -0.9974   -6.4481   32.0202 N   0  0  0  0  0  0  0  0  0  0  0  0
    0.5288   -5.0801   33.4579 C   0  0  0  0  0  0  0  0  0  0  0  0
   -0.3478   -4.2561   34.1440 C   0  0  0  0  0  0  0  0  0  0  0  0
   -0.8427   -1.1663   34.4142 C   0  0  0  0  0  0  0  0  0  0  0  0
   -1.4229    0.0343   34.8229 C   0  0  0  0  0  0  0  0  0  0  0  0
   -4.4683    3.4764   35.1667 H   0  0  0  0  0  0  0  0  0  0  0  0
   -5.1534    2.6433   36.5909 H   0  0  0  0  0  0  0  0  0  0  0  0
   -3.8001    3.7911   36.8021 H   0  0  0  0  0  0  0  0  0  0  0  0
   -3.5584    1.2064   35.3201 H   0  0  0  0  0  0  0  0  0  0  0  0
   -1.0747   -0.3437   38.1921 H   0  0  0  0  0  0  0  0  0  0  0  0
   -0.0427   -2.4640   37.4662 H   0  0  0  0  0  0  0  0  0  0  0  0
    2.2511   -2.5384   35.6861 H   0  0  0  0  0  0  0  0  0  0  0  0
    3.7227   -4.1768   34.5117 H   0  0  0  0  0  0  0  0  0  0  0  0
    2.9268   -4.5851   31.0364 H   0  0  0  0  0  0  0  0  0  0  0  0
    3.1778   -2.4780   30.0626 H   0  0  0  0  0  0  0  0  0  0  0  0
    4.5414   -2.2350   26.0436 H   0  0  0  0  0  0  0  0  0  0  0  0
    4.1511   -4.6569   25.7492 H   0  0  0  0  0  0  0  0  0  0  0  0
    3.1836   -6.6779   26.4341 H   0  0  0  0  0  0  0  0  0  0  0  0
    4.2976   -6.8577   27.7992 H   0  0  0  0  0  0  0  0  0  0  0  0
    2.5379   -6.9517   28.0316 H   0  0  0  0  0  0  0  0  0  0  0  0
   -1.7397   -6.5699   32.7093 H   0  0  0  0  0  0  0  0  0  0  0  0
   -0.9972   -7.2041   31.3348 H   0  0  0  0  0  0  0  0  0  0  0  0
   -1.4134   -4.2220   33.9869 H   0  0  0  0  0  0  0  0  0  0  0  0
   -0.7476   -1.3700   33.3489 H   0  0  0  0  0  0  0  0  0  0  0  0
   -1.7568    0.7456   34.0724 H   0  0  0  0  0  0  0  0  0  0  0  0
  1  2  1  0
  2  3  1  0
  3  4  2  0
  3  5  1  0
  5  6  2  0
  6  7  1  0
  7  8  2  0
  8  9  1  0
  9 10  1  0
 10 11  2  0
 11 12  1  0
 12 13  2  0
 13 14  1  0
 14 15  1  0
 15 16  2  0
 15 17  1  0
 17 18  1  0
 18 19  2  0
 19 20  1  0
 20 21  1  0
 20 22  2  0
 22 23  1  0
 23 24  2  0
 24 25  1  0
 14 26  1  0
 26 27  1  0
 26 28  2  0
 28 29  1  0
  8 30  1  0
 30 31  2  0
 31  5  1  0
 29  9  2  0
 28 12  1  0
 24 18  1  0
  1 32  1  0
  1 33  1  0
  1 34  1  0
  2 35  1  0
  6 36  1  0
  7 37  1  0
 10 38  1  0
 11 39  1  0
 17 40  1  0
 19 41  1  0
 22 42  1  0
 23 43  1  0
 25 44  1  0
 25 45  1  0
 25 46  1  0
 27 47  1  0
 27 48  1  0
 29 49  1  0
 30 50  1  0
 31 51  1  0
M  END
>  <Energy>  (94) 
182.91746611684704

>  <compound_id>  (94) 
3925

>  <target_id>  (94) 
1

>  <reference_id>  (94) 
136

>  <inspiration_ids>  (94) 
[136, 40]

>  <energy_score>  (94) 
-38.49457899039845

>  <distance_score>  (94) 
4.2455386438612015

>  <path>  (94) 
/opt/xchem-fragalysis-2/maxwin/BulkDock/SCRATCH/505735/C3925-P136/C3925-P136.minimised.mol

>  <scratch_subdir>  (94) 
/opt/xchem-fragalysis-2/maxwin/BulkDock/SCRATCH/505735/C3925-P136

>  <fragmenstein_runtime>  (94) 
21.449501276016235

>  <fragmenstein_outcome>  (94) 
too moved

>  <fragmenstein_mode>  (94) 
expansion

>  <fragmenstein_error>  (94) 


$$$$
C3925-P40
     RDKit          3D

 51 54  0  0  0  0  0  0  0  0999 V2000
   -0.7940    4.1508   37.2509 C   0  0  0  0  0  0  0  0  0  0  0  0
   -0.2576    2.8714   36.8860 N   0  0  0  0  0  0  0  0  0  0  0  0
    1.0747    2.3632   36.9460 C   0  0  0  0  0  0  0  0  0  0  0  0
    2.1018    2.8973   37.2422 O   0  0  0  0  0  0  0  0  0  0  0  0
    1.1706    0.9325   36.5305 C   0  0  0  0  0  0  0  0  0  0  0  0
    1.9344    0.0592   37.3134 C   0  0  0  0  0  0  0  0  0  0  0  0
    2.0617   -1.2827   36.9506 C   0  0  0  0  0  0  0  0  0  0  0  0
    1.4361   -1.7629   35.7954 C   0  0  0  0  0  0  0  0  0  0  0  0
    1.6366   -3.1401   35.3420 C   0  0  0  0  0  0  0  0  0  0  0  0
    2.9215   -3.4566   34.7619 C   0  0  0  0  0  0  0  0  0  0  0  0
    3.2025   -4.6304   34.0461 C   0  0  0  0  0  0  0  0  0  0  0  0
    2.0663   -5.4185   33.8837 C   0  0  0  0  0  0  0  0  0  0  0  0
    1.8650   -6.4440   33.0416 N   0  0  0  0  0  0  0  0  0  0  0  0
    0.5004   -6.4193   32.8897 N   0  0  0  0  0  0  0  0  0  0  0  0
   -0.0181   -5.8764   31.6713 C   0  0  0  0  0  0  0  0  0  0  0  0
   -1.1984   -5.8548   31.4813 O   0  0  0  0  0  0  0  0  0  0  0  0
    1.0694   -5.3424   30.8990 N   0  0  0  0  0  0  0  0  0  0  0  0
    1.0739   -4.5585   29.7486 C   0  0  0  0  0  0  0  0  0  0  0  0
   -0.0359   -3.7455   29.5092 C   0  0  0  0  0  0  0  0  0  0  0  0
    0.0928   -2.6310   28.6981 C   0  0  0  0  0  0  0  0  0  0  0  0
   -0.9324   -1.7780   28.5855 F   0  0  0  0  0  0  0  0  0  0  0  0
    1.2963   -2.3415   28.0788 C   0  0  0  0  0  0  0  0  0  0  0  0
    2.3739   -3.2128   28.2158 C   0  0  0  0  0  0  0  0  0  0  0  0
    2.2784   -4.3317   29.0561 C   0  0  0  0  0  0  0  0  0  0  0  0
    3.5089   -5.1656   29.2634 C   0  0  0  0  0  0  0  0  0  0  0  0
   -0.0770   -6.0879   34.1274 C   0  0  0  0  0  0  0  0  0  0  0  0
   -1.3451   -6.3998   34.4813 N   0  0  0  0  0  0  0  0  0  0  0  0
    0.8272   -5.1455   34.5641 C   0  0  0  0  0  0  0  0  0  0  0  0
    0.5446   -4.0455   35.3585 C   0  0  0  0  0  0  0  0  0  0  0  0
    0.6846   -0.8746   35.0038 C   0  0  0  0  0  0  0  0  0  0  0  0
    0.5570    0.4682   35.3621 C   0  0  0  0  0  0  0  0  0  0  0  0
   -1.2467    4.6022   36.3653 H   0  0  0  0  0  0  0  0  0  0  0  0
   -1.5576    4.0008   38.0173 H   0  0  0  0  0  0  0  0  0  0  0  0
    0.0027    4.7921   37.6343 H   0  0  0  0  0  0  0  0  0  0  0  0
   -0.8676    2.1543   36.5146 H   0  0  0  0  0  0  0  0  0  0  0  0
    2.4360    0.4289   38.2059 H   0  0  0  0  0  0  0  0  0  0  0  0
    2.6653   -1.9452   37.5677 H   0  0  0  0  0  0  0  0  0  0  0  0
    3.7135   -2.7058   34.8252 H   0  0  0  0  0  0  0  0  0  0  0  0
    4.1510   -4.8123   33.5624 H   0  0  0  0  0  0  0  0  0  0  0  0
    1.9506   -5.6240   31.3265 H   0  0  0  0  0  0  0  0  0  0  0  0
   -0.9668   -3.8525   30.0513 H   0  0  0  0  0  0  0  0  0  0  0  0
    1.3778   -1.4348   27.4867 H   0  0  0  0  0  0  0  0  0  0  0  0
    3.3067   -2.9752   27.7077 H   0  0  0  0  0  0  0  0  0  0  0  0
    3.2493   -6.2263   29.3111 H   0  0  0  0  0  0  0  0  0  0  0  0
    4.2108   -5.0526   28.4300 H   0  0  0  0  0  0  0  0  0  0  0  0
    4.0166   -4.8627   30.1834 H   0  0  0  0  0  0  0  0  0  0  0  0
   -1.9173   -6.8512   33.7692 H   0  0  0  0  0  0  0  0  0  0  0  0
   -1.8689   -5.6475   34.9372 H   0  0  0  0  0  0  0  0  0  0  0  0
   -0.4221   -3.8109   35.7830 H   0  0  0  0  0  0  0  0  0  0  0  0
    0.2212   -1.2222   34.0817 H   0  0  0  0  0  0  0  0  0  0  0  0
    0.0101    1.1445   34.7106 H   0  0  0  0  0  0  0  0  0  0  0  0
  1  2  1  0
  2  3  1  0
  3  4  2  0
  3  5  1  0
  5  6  2  0
  6  7  1  0
  7  8  2  0
  8  9  1  0
  9 10  1  0
 10 11  2  0
 11 12  1  0
 12 13  2  0
 13 14  1  0
 14 15  1  0
 15 16  2  0
 15 17  1  0
 17 18  1  0
 18 19  2  0
 19 20  1  0
 20 21  1  0
 20 22  2  0
 22 23  1  0
 23 24  2  0
 24 25  1  0
 14 26  1  0
 26 27  1  0
 26 28  2  0
 28 29  1  0
  8 30  1  0
 30 31  2  0
 31  5  1  0
 29  9  2  0
 28 12  1  0
 24 18  1  0
  1 32  1  0
  1 33  1  0
  1 34  1  0
  2 35  1  0
  6 36  1  0
  7 37  1  0
 10 38  1  0
 11 39  1  0
 17 40  1  0
 19 41  1  0
 22 42  1  0
 23 43  1  0
 25 44  1  0
 25 45  1  0
 25 46  1  0
 27 47  1  0
 27 48  1  0
 29 49  1  0
 30 50  1  0
 31 51  1  0
M  END
>  <Energy>  (95) 
188.45217333605365

>  <compound_id>  (95) 
3925

>  <target_id>  (95) 
1

>  <reference_id>  (95) 
40

>  <inspiration_ids>  (95) 
[136, 40]

>  <energy_score>  (95) 
-32.95987177119048

>  <distance_score>  (95) 
3.5038896903996637

>  <path>  (95) 
/opt/xchem-fragalysis-2/maxwin/BulkDock/SCRATCH/505735/C3925-P40/C3925-P40.minimised.mol

>  <scratch_subdir>  (95) 
/opt/xchem-fragalysis-2/maxwin/BulkDock/SCRATCH/505735/C3925-P40

>  <fragmenstein_runtime>  (95) 
15.460199117660522

>  <fragmenstein_outcome>  (95) 
too moved

>  <fragmenstein_mode>  (95) 
expansion

>  <fragmenstein_error>  (95) 


$$$$
C3926-P136
     RDKit          3D

 61 64  0  0  0  0  0  0  0  0999 V2000
    0.2757    3.3168   34.1966 C   0  0  0  0  0  0  0  0  0  0  0  0
    0.1818    2.0144   33.6014 N   0  0  0  0  0  0  0  0  0  0  0  0
    0.5981    1.5373   32.3209 C   0  0  0  0  0  0  0  0  0  0  0  0
    1.0612    2.1169   31.3844 O   0  0  0  0  0  0  0  0  0  0  0  0
    0.3902    0.0651   32.1572 C   0  0  0  0  0  0  0  0  0  0  0  0
    0.9294   -0.7824   33.1463 C   0  0  0  0  0  0  0  0  0  0  0  0
    0.8016   -2.1626   33.0325 C   0  0  0  0  0  0  0  0  0  0  0  0
    0.1287   -2.7002   31.9352 C   0  0  0  0  0  0  0  0  0  0  0  0
    0.0922   -4.1587   31.7240 C   0  0  0  0  0  0  0  0  0  0  0  0
    0.7577   -4.7428   30.5564 C   0  0  0  0  0  0  0  0  0  0  0  0
    0.6517   -6.0452   30.2547 C   0  0  0  0  0  0  0  0  0  0  0  0
   -0.1512   -6.8818   31.0616 C   0  0  0  0  0  0  0  0  0  0  0  0
   -0.6056   -8.1018   30.8990 N   0  0  0  0  0  0  0  0  0  0  0  0
   -1.2431   -8.4557   32.0609 N   0  0  0  0  0  0  0  0  0  0  0  0
   -1.1523   -7.4572   32.9137 C   0  0  0  0  0  0  0  0  0  0  0  0
   -1.4942   -7.4822   34.2238 N   0  0  0  0  0  0  0  0  0  0  0  0
   -0.6118   -6.3609   32.2626 N   0  0  0  0  0  0  0  0  0  0  0  0
   -0.5167   -5.0025   32.5902 C   0  0  0  0  0  0  0  0  0  0  0  0
   -0.4150   -1.8423   30.9482 C   0  0  0  0  0  0  0  0  0  0  0  0
   -0.2567   -0.4495   31.0041 C   0  0  0  0  0  0  0  0  0  0  0  0
   -0.8291    0.4191   30.0569 N   0  0  0  0  0  0  0  0  0  0  0  0
   -1.0852    0.0339   28.6530 C   0  0  0  0  0  0  0  0  0  0  0  0
   -0.7168    1.1170   27.6786 C   0  0  0  0  0  0  0  0  0  0  0  0
    0.6437    1.2054   27.5085 O   0  0  0  0  0  0  0  0  0  0  0  0
    0.9126    2.3450   26.8301 C   0  0  0  0  0  0  0  0  0  0  0  0
    2.3310    2.7152   26.7127 C   0  0  0  0  0  0  0  0  0  0  0  0
   -0.2558    2.9347   26.4307 C   0  0  0  0  0  0  0  0  0  0  0  0
   -1.3296    2.1743   27.0086 C   0  0  0  0  0  0  0  0  0  0  0  0
   -2.6707    2.7521   27.1144 C   0  0  0  0  0  0  0  0  0  0  0  0
   -2.6779    3.8107   27.6650 O   0  0  0  0  0  0  0  0  0  0  0  0
   -3.7318    2.0105   26.4971 N   0  0  0  0  0  0  0  0  0  0  0  0
   -5.1477    2.3618   26.2603 C   0  0  0  0  0  0  0  0  0  0  0  0
   -6.2117    1.3392   25.8771 C   0  0  0  0  0  0  0  0  0  0  0  0
   -6.1328    0.8332   24.7907 O   0  0  0  0  0  0  0  0  0  0  0  0
   -7.2418    0.8598   26.7859 O   0  0  0  0  0  0  0  0  0  0  0  0
   -7.8710   -0.5376   26.8078 C   0  0  0  0  0  0  0  0  0  0  0  0
    0.9058    3.2462   35.0860 H   0  0  0  0  0  0  0  0  0  0  0  0
    0.7109    4.0201   33.4830 H   0  0  0  0  0  0  0  0  0  0  0  0
   -0.7270    3.6421   34.4824 H   0  0  0  0  0  0  0  0  0  0  0  0
   -0.2407    1.2514   34.1166 H   0  0  0  0  0  0  0  0  0  0  0  0
    1.4830   -0.3661   33.9848 H   0  0  0  0  0  0  0  0  0  0  0  0
    1.2551   -2.8076   33.7808 H   0  0  0  0  0  0  0  0  0  0  0  0
    1.3741   -4.0911   29.9410 H   0  0  0  0  0  0  0  0  0  0  0  0
    1.1889   -6.4680   29.4182 H   0  0  0  0  0  0  0  0  0  0  0  0
   -0.9665   -6.9097   34.8742 H   0  0  0  0  0  0  0  0  0  0  0  0
   -1.5701   -8.4471   34.5859 H   0  0  0  0  0  0  0  0  0  0  0  0
   -1.0078   -4.6858   33.5030 H   0  0  0  0  0  0  0  0  0  0  0  0
   -0.9496   -2.2858   30.1095 H   0  0  0  0  0  0  0  0  0  0  0  0
   -0.2983    1.3039   30.0583 H   0  0  0  0  0  0  0  0  0  0  0  0
   -0.4949   -0.8511   28.3834 H   0  0  0  0  0  0  0  0  0  0  0  0
   -2.1310   -0.2435   28.5379 H   0  0  0  0  0  0  0  0  0  0  0  0
    2.4674    3.5244   25.9887 H   0  0  0  0  0  0  0  0  0  0  0  0
    2.9296    1.8611   26.3809 H   0  0  0  0  0  0  0  0  0  0  0  0
    2.7187    3.0523   27.6789 H   0  0  0  0  0  0  0  0  0  0  0  0
   -0.3529    3.8862   25.9239 H   0  0  0  0  0  0  0  0  0  0  0  0
   -3.3444    1.1871   26.0541 H   0  0  0  0  0  0  0  0  0  0  0  0
   -5.5093    2.8680   27.1276 H   0  0  0  0  0  0  0  0  0  0  0  0
   -5.0952    3.0891   25.4528 H   0  0  0  0  0  0  0  0  0  0  0  0
   -7.4249   -1.1869   27.5645 H   0  0  0  0  0  0  0  0  0  0  0  0
   -7.7374   -1.0326   25.8413 H   0  0  0  0  0  0  0  0  0  0  0  0
   -8.8834   -0.4623   27.2047 H   0  0  0  0  0  0  0  0  0  0  0  0
  1  2  1  0
  2  3  1  0
  3  4  2  0
  3  5  1  0
  5  6  2  0
  6  7  1  0
  7  8  2  0
  8  9  1  0
  9 10  1  0
 10 11  2  0
 11 12  1  0
 12 13  2  0
 13 14  1  0
 14 15  2  0
 15 16  1  0
 15 17  1  0
 17 18  1  0
  8 19  1  0
 19 20  2  0
 20 21  1  0
 21 22  1  0
 22 23  1  0
 23 24  1  0
 24 25  1  0
 25 26  1  0
 25 27  2  0
 27 28  1  0
 28 29  1  0
 29 30  2  0
 29 31  1  0
 31 32  1  0
 32 33  1  0
 33 34  2  0
 33 35  1  0
 35 36  1  0
 20  5  1  0
 28 23  2  0
 18  9  2  0
 17 12  1  0
  1 37  1  0
  1 38  1  0
  1 39  1  0
  2 40  1  0
  6 41  1  0
  7 42  1  0
 10 43  1  0
 11 44  1  0
 16 45  1  0
 16 46  1  0
 18 47  1  0
 19 48  1  0
 21 49  1  0
 22 50  1  0
 22 51  1  0
 26 52  1  0
 26 53  1  0
 26 54  1  0
 27 55  1  0
 31 56  1  0
 32 57  1  0
 32 58  1  0
 36 59  1  0
 36 60  1  0
 36 61  1  0
M  END
>  <Energy>  (96) 
124.79350582902644

>  <compound_id>  (96) 
3926

>  <target_id>  (96) 
1

>  <reference_id>  (96) 
136

>  <inspiration_ids>  (96) 
[136, 44]

>  <energy_score>  (96) 
-11.477851810339814

>  <distance_score>  (96) 
2.028154298426999

>  <path>  (96) 
/opt/xchem-fragalysis-2/maxwin/BulkDock/SCRATCH/505735/C3926-P136/C3926-P136.minimised.mol

>  <scratch_subdir>  (96) 
/opt/xchem-fragalysis-2/maxwin/BulkDock/SCRATCH/505735/C3926-P136

>  <fragmenstein_runtime>  (96) 
27.28864073753357

>  <fragmenstein_outcome>  (96) 
too moved

>  <fragmenstein_mode>  (96) 
expansion

>  <fragmenstein_error>  (96) 


$$$$
C3926-P44
     RDKit          3D

 61 64  0  0  0  0  0  0  0  0999 V2000
    0.6929    3.9336   32.5245 C   0  0  0  0  0  0  0  0  0  0  0  0
    0.4958    2.5846   32.0750 N   0  0  0  0  0  0  0  0  0  0  0  0
    0.6689    1.9920   30.7876 C   0  0  0  0  0  0  0  0  0  0  0  0
    0.9467    2.4807   29.7354 O   0  0  0  0  0  0  0  0  0  0  0  0
    0.4308    0.5170   30.7978 C   0  0  0  0  0  0  0  0  0  0  0  0
    1.2296   -0.2225   31.6845 C   0  0  0  0  0  0  0  0  0  0  0  0
    1.0671   -1.5931   31.7696 C   0  0  0  0  0  0  0  0  0  0  0  0
    0.1140   -2.2379   30.9679 C   0  0  0  0  0  0  0  0  0  0  0  0
    0.0136   -3.7004   31.1325 C   0  0  0  0  0  0  0  0  0  0  0  0
    0.6214   -4.6340   30.1838 C   0  0  0  0  0  0  0  0  0  0  0  0
    0.7067   -5.9527   30.4391 C   0  0  0  0  0  0  0  0  0  0  0  0
    0.1489   -6.4769   31.6284 C   0  0  0  0  0  0  0  0  0  0  0  0
    0.0369   -7.6983   32.0935 N   0  0  0  0  0  0  0  0  0  0  0  0
   -0.4802   -7.6130   33.3629 N   0  0  0  0  0  0  0  0  0  0  0  0
   -0.7064   -6.3484   33.6357 C   0  0  0  0  0  0  0  0  0  0  0  0
   -1.1491   -5.8344   34.8025 N   0  0  0  0  0  0  0  0  0  0  0  0
   -0.3828   -5.5769   32.5348 N   0  0  0  0  0  0  0  0  0  0  0  0
   -0.4619   -4.2035   32.2953 C   0  0  0  0  0  0  0  0  0  0  0  0
   -0.6531   -1.4980   30.0326 C   0  0  0  0  0  0  0  0  0  0  0  0
   -0.5076   -0.1022   29.9173 C   0  0  0  0  0  0  0  0  0  0  0  0
   -1.3784    0.6956   29.1427 N   0  0  0  0  0  0  0  0  0  0  0  0
   -1.7353    0.4404   27.7126 C   0  0  0  0  0  0  0  0  0  0  0  0
   -1.7513    1.7717   26.9673 C   0  0  0  0  0  0  0  0  0  0  0  0
   -0.5122    2.3433   27.1589 O   0  0  0  0  0  0  0  0  0  0  0  0
   -0.5040    3.5903   26.6634 C   0  0  0  0  0  0  0  0  0  0  0  0
    0.7162    4.3770   26.9004 C   0  0  0  0  0  0  0  0  0  0  0  0
   -1.6979    3.8323   26.0526 C   0  0  0  0  0  0  0  0  0  0  0  0
   -2.5484    2.6631   26.2194 C   0  0  0  0  0  0  0  0  0  0  0  0
   -3.9200    2.7116   25.5940 C   0  0  0  0  0  0  0  0  0  0  0  0
   -4.0731    3.6042   24.8153 O   0  0  0  0  0  0  0  0  0  0  0  0
   -4.7781    1.6421   25.9549 N   0  0  0  0  0  0  0  0  0  0  0  0
   -6.1711    1.2048   25.3865 C   0  0  0  0  0  0  0  0  0  0  0  0
   -7.4330   -0.2202   25.6175 C   0  0  0  0  0  0  0  0  0  0  0  0
   -7.6604   -1.1873   24.9183 O   0  0  0  0  0  0  0  0  0  0  0  0
   -7.9792    0.0923   26.8856 O   0  0  0  0  0  0  0  0  0  0  0  0
   -8.6383   -0.8734   27.6427 C   0  0  0  0  0  0  0  0  0  0  0  0
    1.5001    3.9381   33.2603 H   0  0  0  0  0  0  0  0  0  0  0  0
    0.9541    4.5720   31.6775 H   0  0  0  0  0  0  0  0  0  0  0  0
   -0.2302    4.2840   32.9912 H   0  0  0  0  0  0  0  0  0  0  0  0
    0.1803    1.8752   32.7251 H   0  0  0  0  0  0  0  0  0  0  0  0
    1.9842    0.2699   32.2932 H   0  0  0  0  0  0  0  0  0  0  0  0
    1.6938   -2.1589   32.4566 H   0  0  0  0  0  0  0  0  0  0  0  0
    1.0538   -4.2201   29.2759 H   0  0  0  0  0  0  0  0  0  0  0  0
    1.2191   -6.6318   29.7727 H   0  0  0  0  0  0  0  0  0  0  0  0
   -1.4293   -6.5344   35.4841 H   0  0  0  0  0  0  0  0  0  0  0  0
   -1.8082   -5.0533   34.7699 H   0  0  0  0  0  0  0  0  0  0  0  0
   -0.8634   -3.5917   33.0945 H   0  0  0  0  0  0  0  0  0  0  0  0
   -1.3870   -2.0109   29.4128 H   0  0  0  0  0  0  0  0  0  0  0  0
   -0.9426    1.6328   29.1016 H   0  0  0  0  0  0  0  0  0  0  0  0
   -0.9689   -0.1947   27.2531 H   0  0  0  0  0  0  0  0  0  0  0  0
   -2.6817   -0.0854   27.6411 H   0  0  0  0  0  0  0  0  0  0  0  0
    0.7162    4.7838   27.9162 H   0  0  0  0  0  0  0  0  0  0  0  0
    0.7839    5.2136   26.1981 H   0  0  0  0  0  0  0  0  0  0  0  0
    1.6108    3.7589   26.7759 H   0  0  0  0  0  0  0  0  0  0  0  0
   -1.9826    4.7523   25.5559 H   0  0  0  0  0  0  0  0  0  0  0  0
   -4.2928    1.0370   26.5789 H   0  0  0  0  0  0  0  0  0  0  0  0
   -5.8915    0.9314   24.4481 H   0  0  0  0  0  0  0  0  0  0  0  0
   -6.6274    2.1001   25.6514 H   0  0  0  0  0  0  0  0  0  0  0  0
   -8.1096   -1.8194   27.6993 H   0  0  0  0  0  0  0  0  0  0  0  0
   -9.6247   -0.8303   27.2878 H   0  0  0  0  0  0  0  0  0  0  0  0
   -8.8652   -0.4878   28.6147 H   0  0  0  0  0  0  0  0  0  0  0  0
  1  2  1  0
  2  3  1  0
  3  4  2  0
  3  5  1  0
  5  6  2  0
  6  7  1  0
  7  8  2  0
  8  9  1  0
  9 10  1  0
 10 11  2  0
 11 12  1  0
 12 13  2  0
 13 14  1  0
 14 15  2  0
 15 16  1  0
 15 17  1  0
 17 18  1  0
  8 19  1  0
 19 20  2  0
 20 21  1  0
 21 22  1  0
 22 23  1  0
 23 24  1  0
 24 25  1  0
 25 26  1  0
 25 27  2  0
 27 28  1  0
 28 29  1  0
 29 30  2  0
 29 31  1  0
 31 32  1  0
 32 33  1  0
 33 34  2  0
 33 35  1  0
 35 36  1  0
 20  5  1  0
 28 23  2  0
 18  9  2  0
 17 12  1  0
  1 37  1  0
  1 38  1  0
  1 39  1  0
  2 40  1  0
  6 41  1  0
  7 42  1  0
 10 43  1  0
 11 44  1  0
 16 45  1  0
 16 46  1  0
 18 47  1  0
 19 48  1  0
 21 49  1  0
 22 50  1  0
 22 51  1  0
 26 52  1  0
 26 53  1  0
 26 54  1  0
 27 55  1  0
 31 56  1  0
 32 57  1  0
 32 58  1  0
 36 59  1  0
 36 60  1  0
 36 61  1  0
M  END
>  <Energy>  (97) 
167.36471603493453

>  <compound_id>  (97) 
3926

>  <target_id>  (97) 
1

>  <reference_id>  (97) 
44

>  <inspiration_ids>  (97) 
[136, 44]

>  <energy_score>  (97) 
31.093358395562632

>  <distance_score>  (97) 
2.583659966232905

>  <path>  (97) 
/opt/xchem-fragalysis-2/maxwin/BulkDock/SCRATCH/505735/C3926-P44/C3926-P44.minimised.mol

>  <scratch_subdir>  (97) 
/opt/xchem-fragalysis-2/maxwin/BulkDock/SCRATCH/505735/C3926-P44

>  <fragmenstein_runtime>  (97) 
24.49312114715576

>  <fragmenstein_outcome>  (97) 
too moved

>  <fragmenstein_mode>  (97) 
expansion

>  <fragmenstein_error>  (97) 


$$$$
C3217-P136
     RDKit          3D

 35 38  0  0  0  0  0  0  0  0999 V2000
    2.6253    2.6583   35.2016 C   0  0  0  0  0  0  0  0  0  0  0  0
    2.4233    1.3040   34.7766 N   0  0  0  0  0  0  0  0  0  0  0  0
    3.4401    0.2139   34.3948 C   0  0  0  0  0  0  0  0  0  0  0  0
    4.6038    0.2185   34.4384 O   0  0  0  0  0  0  0  0  0  0  0  0
    2.7530   -1.0176   33.9082 C   0  0  0  0  0  0  0  0  0  0  0  0
    3.1938   -2.2589   34.3802 C   0  0  0  0  0  0  0  0  0  0  0  0
    2.5884   -3.4361   33.9338 C   0  0  0  0  0  0  0  0  0  0  0  0
    1.5341   -3.3796   33.0151 C   0  0  0  0  0  0  0  0  0  0  0  0
    0.9123   -4.6061   32.4871 C   0  0  0  0  0  0  0  0  0  0  0  0
    0.2380   -5.4872   33.2644 C   0  0  0  0  0  0  0  0  0  0  0  0
   -0.0271   -5.4643   34.7436 C   0  0  0  0  0  0  0  0  0  0  0  0
   -0.7245   -6.3610   35.3954 N   0  0  0  0  0  0  0  0  0  0  0  0
   -1.2890   -7.3918   34.6446 C   0  0  0  0  0  0  0  0  0  0  0  0
   -1.1274   -7.4963   33.3155 C   0  0  0  0  0  0  0  0  0  0  0  0
   -1.5891   -8.3247   32.3161 N   0  0  0  0  0  0  0  0  0  0  0  0
   -1.1613   -7.8714   31.0427 N   0  0  0  0  0  0  0  0  0  0  0  0
   -0.3913   -6.8375   31.3418 C   0  0  0  0  0  0  0  0  0  0  0  0
    0.3736   -5.9528   30.4479 C   0  0  0  0  0  0  0  0  0  0  0  0
    0.9874   -4.9067   31.0342 C   0  0  0  0  0  0  0  0  0  0  0  0
   -0.3485   -6.5776   32.6827 N   0  0  0  0  0  0  0  0  0  0  0  0
    1.1137   -2.1323   32.5258 C   0  0  0  0  0  0  0  0  0  0  0  0
    1.7248   -0.9547   32.9626 C   0  0  0  0  0  0  0  0  0  0  0  0
    2.3634    3.3225   34.3749 H   0  0  0  0  0  0  0  0  0  0  0  0
    3.6728    2.8029   35.4748 H   0  0  0  0  0  0  0  0  0  0  0  0
    1.9757    2.8577   36.0562 H   0  0  0  0  0  0  0  0  0  0  0  0
    1.4901    0.9950   34.5352 H   0  0  0  0  0  0  0  0  0  0  0  0
    4.0183   -2.3075   35.0894 H   0  0  0  0  0  0  0  0  0  0  0  0
    2.9611   -4.3909   34.2985 H   0  0  0  0  0  0  0  0  0  0  0  0
    0.4025   -4.6240   35.3100 H   0  0  0  0  0  0  0  0  0  0  0  0
   -1.8762   -8.1179   35.1961 H   0  0  0  0  0  0  0  0  0  0  0  0
   -2.4261   -8.8921   32.4497 H   0  0  0  0  0  0  0  0  0  0  0  0
    0.4338   -6.1577   29.4028 H   0  0  0  0  0  0  0  0  0  0  0  0
    1.5757   -4.2276   30.4203 H   0  0  0  0  0  0  0  0  0  0  0  0
    0.3137   -2.0687   31.7894 H   0  0  0  0  0  0  0  0  0  0  0  0
    1.4098   -0.0040   32.5404 H   0  0  0  0  0  0  0  0  0  0  0  0
  1  2  1  0
  2  3  1  0
  3  4  2  0
  3  5  1  0
  5  6  2  0
  6  7  1  0
  7  8  2  0
  8  9  1  0
  9 10  2  0
 10 11  1  0
 11 12  2  0
 12 13  1  0
 13 14  2  0
 14 15  1  0
 15 16  1  0
 16 17  2  0
 17 18  1  0
 18 19  2  0
 17 20  1  0
  8 21  1  0
 21 22  2  0
 22  5  1  0
 19  9  1  0
 20 10  1  0
 20 14  1  0
  1 23  1  0
  1 24  1  0
  1 25  1  0
  2 26  1  0
  6 27  1  0
  7 28  1  0
 11 29  1  0
 13 30  1  0
 15 31  1  0
 18 32  1  0
 19 33  1  0
 21 34  1  0
 22 35  1  0
M  END
>  <Energy>  (98) 
124.85935256899849

>  <compound_id>  (98) 
3217

>  <target_id>  (98) 
1

>  <reference_id>  (98) 
136

>  <inspiration_ids>  (98) 
[136, 72]

>  <energy_score>  (98) 
-16.51889853393689

>  <distance_score>  (98) 
0.7749956663640203

>  <path>  (98) 
/opt/xchem-fragalysis-2/maxwin/BulkDock/SCRATCH/505735/C3217-P136/C3217-P136.minimised.mol

>  <scratch_subdir>  (98) 
/opt/xchem-fragalysis-2/maxwin/BulkDock/SCRATCH/505735/C3217-P136

>  <fragmenstein_runtime>  (98) 
2.4044950008392334

>  <fragmenstein_outcome>  (98) 
acceptable

>  <fragmenstein_mode>  (98) 
expansion

>  <fragmenstein_error>  (98) 


$$$$
C3217-P72
     RDKit          3D

 35 38  0  0  0  0  0  0  0  0999 V2000
    2.8154    2.5587   35.3724 C   0  0  0  0  0  0  0  0  0  0  0  0
    2.5687    1.2720   34.7894 N   0  0  0  0  0  0  0  0  0  0  0  0
    3.5420    0.1397   34.4181 C   0  0  0  0  0  0  0  0  0  0  0  0
    4.7053    0.1018   34.4555 O   0  0  0  0  0  0  0  0  0  0  0  0
    2.8078   -1.0685   33.9372 C   0  0  0  0  0  0  0  0  0  0  0  0
    3.2553   -2.3294   34.3474 C   0  0  0  0  0  0  0  0  0  0  0  0
    2.6102   -3.4859   33.9015 C   0  0  0  0  0  0  0  0  0  0  0  0
    1.5063   -3.3912   33.0465 C   0  0  0  0  0  0  0  0  0  0  0  0
    0.8443   -4.5961   32.5137 C   0  0  0  0  0  0  0  0  0  0  0  0
    0.2401   -5.5223   33.2977 C   0  0  0  0  0  0  0  0  0  0  0  0
    0.0719   -5.5600   34.7914 C   0  0  0  0  0  0  0  0  0  0  0  0
   -0.5909   -6.4792   35.4497 N   0  0  0  0  0  0  0  0  0  0  0  0
   -1.2049   -7.4770   34.6950 C   0  0  0  0  0  0  0  0  0  0  0  0
   -1.1083   -7.5445   33.3577 C   0  0  0  0  0  0  0  0  0  0  0  0
   -1.6334   -8.3427   32.3612 N   0  0  0  0  0  0  0  0  0  0  0  0
   -1.3232   -7.8082   31.0832 N   0  0  0  0  0  0  0  0  0  0  0  0
   -0.5409   -6.7807   31.3703 C   0  0  0  0  0  0  0  0  0  0  0  0
    0.0973   -5.8169   30.4626 C   0  0  0  0  0  0  0  0  0  0  0  0
    0.7685   -4.8053   31.0445 C   0  0  0  0  0  0  0  0  0  0  0  0
   -0.3715   -6.5992   32.7134 N   0  0  0  0  0  0  0  0  0  0  0  0
    1.0760   -2.1237   32.6209 C   0  0  0  0  0  0  0  0  0  0  0  0
    1.7280   -0.9667   33.0546 C   0  0  0  0  0  0  0  0  0  0  0  0
    2.2397    3.3074   34.8243 H   0  0  0  0  0  0  0  0  0  0  0  0
    2.4915    2.5335   36.4152 H   0  0  0  0  0  0  0  0  0  0  0  0
    3.8828    2.7838   35.3218 H   0  0  0  0  0  0  0  0  0  0  0  0
    1.6161    0.9370   34.7141 H   0  0  0  0  0  0  0  0  0  0  0  0
    4.1187   -2.4100   35.0058 H   0  0  0  0  0  0  0  0  0  0  0  0
    2.9940   -4.4545   34.2145 H   0  0  0  0  0  0  0  0  0  0  0  0
    0.5388   -4.7431   35.3626 H   0  0  0  0  0  0  0  0  0  0  0  0
   -1.7792   -8.2079   35.2512 H   0  0  0  0  0  0  0  0  0  0  0  0
   -2.5066   -8.8442   32.5224 H   0  0  0  0  0  0  0  0  0  0  0  0
   -0.0202   -5.9149   29.4078 H   0  0  0  0  0  0  0  0  0  0  0  0
    1.2501   -4.0618   30.4124 H   0  0  0  0  0  0  0  0  0  0  0  0
    0.2356   -2.0259   31.9348 H   0  0  0  0  0  0  0  0  0  0  0  0
    1.4024   -0.0003   32.6781 H   0  0  0  0  0  0  0  0  0  0  0  0
  1  2  1  0
  2  3  1  0
  3  4  2  0
  3  5  1  0
  5  6  2  0
  6  7  1  0
  7  8  2  0
  8  9  1  0
  9 10  2  0
 10 11  1  0
 11 12  2  0
 12 13  1  0
 13 14  2  0
 14 15  1  0
 15 16  1  0
 16 17  2  0
 17 18  1  0
 18 19  2  0
 17 20  1  0
  8 21  1  0
 21 22  2  0
 22  5  1  0
 19  9  1  0
 20 10  1  0
 20 14  1  0
  1 23  1  0
  1 24  1  0
  1 25  1  0
  2 26  1  0
  6 27  1  0
  7 28  1  0
 11 29  1  0
 13 30  1  0
 15 31  1  0
 18 32  1  0
 19 33  1  0
 21 34  1  0
 22 35  1  0
M  END
>  <Energy>  (99) 
124.38090816963556

>  <compound_id>  (99) 
3217

>  <target_id>  (99) 
1

>  <reference_id>  (99) 
72

>  <inspiration_ids>  (99) 
[136, 72]

>  <energy_score>  (99) 
-16.99734293329965

>  <distance_score>  (99) 
0.7805531564834529

>  <path>  (99) 
/opt/xchem-fragalysis-2/maxwin/BulkDock/SCRATCH/505735/C3217-P72/C3217-P72.minimised.mol

>  <scratch_subdir>  (99) 
/opt/xchem-fragalysis-2/maxwin/BulkDock/SCRATCH/505735/C3217-P72

>  <fragmenstein_runtime>  (99) 
2.3286540508270264

>  <fragmenstein_outcome>  (99) 
acceptable

>  <fragmenstein_mode>  (99) 
expansion

>  <fragmenstein_error>  (99) 


$$$$
C3933-P136
     RDKit          3D

 55 58  0  0  0  0  0  0  0  0999 V2000
    3.8807    1.9001   36.0414 C   0  0  0  0  0  0  0  0  0  0  0  0
    3.5681    0.6993   35.3228 N   0  0  0  0  0  0  0  0  0  0  0  0
    4.3897   -0.4010   34.9373 C   0  0  0  0  0  0  0  0  0  0  0  0
    5.5675   -0.5718   35.0442 O   0  0  0  0  0  0  0  0  0  0  0  0
    3.6081   -1.4905   34.2903 C   0  0  0  0  0  0  0  0  0  0  0  0
    3.7886   -2.8040   34.7327 C   0  0  0  0  0  0  0  0  0  0  0  0
    3.0207   -3.8333   34.1844 C   0  0  0  0  0  0  0  0  0  0  0  0
    2.0634   -3.5523   33.2002 C   0  0  0  0  0  0  0  0  0  0  0  0
    1.2362   -4.6341   32.6269 C   0  0  0  0  0  0  0  0  0  0  0  0
    1.5054   -5.0157   31.2317 C   0  0  0  0  0  0  0  0  0  0  0  0
    0.8334   -5.9843   30.5961 C   0  0  0  0  0  0  0  0  0  0  0  0
   -0.1300   -6.7297   31.3031 C   0  0  0  0  0  0  0  0  0  0  0  0
   -0.9075   -7.7266   30.9435 N   0  0  0  0  0  0  0  0  0  0  0  0
   -1.5578   -8.1654   32.0679 N   0  0  0  0  0  0  0  0  0  0  0  0
   -1.1688   -7.4317   33.0888 C   0  0  0  0  0  0  0  0  0  0  0  0
   -1.4403   -7.6552   34.4043 N   0  0  0  0  0  0  0  0  0  0  0  0
   -0.3432   -6.4056   32.6362 N   0  0  0  0  0  0  0  0  0  0  0  0
    0.2493   -5.2888   33.3137 C   0  0  0  0  0  0  0  0  0  0  0  0
   -0.2864   -4.9972   34.5799 N   0  0  0  0  0  0  0  0  0  0  0  0
   -0.0702   -3.8571   35.4864 C   0  0  0  0  0  0  0  0  0  0  0  0
   -0.4642   -2.4573   34.9424 C   0  0  0  0  0  0  0  0  0  0  0  0
    0.0331   -1.4859   35.4399 O   0  0  0  0  0  0  0  0  0  0  0  0
   -1.4091   -2.5804   33.8773 N   0  0  0  0  0  0  0  0  0  0  0  0
   -2.1263   -1.5851   33.1363 C   0  0  0  0  0  0  0  0  0  0  0  0
   -1.5327   -1.3634   31.7695 C   0  0  0  0  0  0  0  0  0  0  0  0
   -0.9522   -0.1336   31.4296 C   0  0  0  0  0  0  0  0  0  0  0  0
   -0.4564    0.0902   30.1418 C   0  0  0  0  0  0  0  0  0  0  0  0
   -0.5275   -0.9157   29.1812 C   0  0  0  0  0  0  0  0  0  0  0  0
   -1.0713   -2.1527   29.5143 C   0  0  0  0  0  0  0  0  0  0  0  0
   -1.5627   -2.3771   30.8020 C   0  0  0  0  0  0  0  0  0  0  0  0
    1.9542   -2.2465   32.7038 C   0  0  0  0  0  0  0  0  0  0  0  0
    2.7138   -1.2132   33.2519 C   0  0  0  0  0  0  0  0  0  0  0  0
    3.4866    1.8080   37.0561 H   0  0  0  0  0  0  0  0  0  0  0  0
    4.9637    2.0385   36.0772 H   0  0  0  0  0  0  0  0  0  0  0  0
    3.4047    2.7434   35.5364 H   0  0  0  0  0  0  0  0  0  0  0  0
    2.5951    0.4616   35.1516 H   0  0  0  0  0  0  0  0  0  0  0  0
    4.5140   -3.0189   35.5142 H   0  0  0  0  0  0  0  0  0  0  0  0
    3.1568   -4.8492   34.5470 H   0  0  0  0  0  0  0  0  0  0  0  0
    2.2685   -4.4549   30.6952 H   0  0  0  0  0  0  0  0  0  0  0  0
    1.0512   -6.2292   29.5661 H   0  0  0  0  0  0  0  0  0  0  0  0
   -0.6887   -7.4174   35.0520 H   0  0  0  0  0  0  0  0  0  0  0  0
   -1.6649   -8.6508   34.5789 H   0  0  0  0  0  0  0  0  0  0  0  0
   -1.1941   -5.4462   34.7446 H   0  0  0  0  0  0  0  0  0  0  0  0
   -0.6852   -4.0212   36.3796 H   0  0  0  0  0  0  0  0  0  0  0  0
    0.9667   -3.8364   35.8271 H   0  0  0  0  0  0  0  0  0  0  0  0
   -1.6689   -3.5567   33.7782 H   0  0  0  0  0  0  0  0  0  0  0  0
   -2.1200   -0.6560   33.7167 H   0  0  0  0  0  0  0  0  0  0  0  0
   -3.1670   -1.9122   33.0397 H   0  0  0  0  0  0  0  0  0  0  0  0
   -0.8820    0.6619   32.1671 H   0  0  0  0  0  0  0  0  0  0  0  0
   -0.0259    1.0542   29.8813 H   0  0  0  0  0  0  0  0  0  0  0  0
   -0.1685   -0.7386   28.1695 H   0  0  0  0  0  0  0  0  0  0  0  0
   -1.1346   -2.9340   28.7594 H   0  0  0  0  0  0  0  0  0  0  0  0
   -1.9825   -3.3472   31.0407 H   0  0  0  0  0  0  0  0  0  0  0  0
    1.2638   -2.0219   31.8957 H   0  0  0  0  0  0  0  0  0  0  0  0
    2.6044   -0.2040   32.8639 H   0  0  0  0  0  0  0  0  0  0  0  0
  1  2  1  0
  2  3  1  0
  3  4  2  0
  3  5  1  0
  5  6  2  0
  6  7  1  0
  7  8  2  0
  8  9  1  0
  9 10  1  0
 10 11  2  0
 11 12  1  0
 12 13  2  0
 13 14  1  0
 14 15  2  0
 15 16  1  0
 15 17  1  0
 17 18  1  0
 18 19  1  0
 19 20  1  0
 20 21  1  0
 21 22  2  0
 21 23  1  0
 23 24  1  0
 24 25  1  0
 25 26  2  0
 26 27  1  0
 27 28  2  0
 28 29  1  0
 29 30  2  0
  8 31  1  0
 31 32  2  0
 32  5  1  0
 18  9  2  0
 30 25  1  0
 17 12  1  0
  1 33  1  0
  1 34  1  0
  1 35  1  0
  2 36  1  0
  6 37  1  0
  7 38  1  0
 10 39  1  0
 11 40  1  0
 16 41  1  0
 16 42  1  0
 19 43  1  0
 20 44  1  0
 20 45  1  0
 23 46  1  0
 24 47  1  0
 24 48  1  0
 26 49  1  0
 27 50  1  0
 28 51  1  0
 29 52  1  0
 30 53  1  0
 31 54  1  0
 32 55  1  0
M  END
>  <Energy>  (100) 
127.94383858008581

>  <compound_id>  (100) 
3933

>  <target_id>  (100) 
1

>  <reference_id>  (100) 
136

>  <inspiration_ids>  (100) 
[136, 134]

>  <energy_score>  (100) 
-47.91868018886959

>  <distance_score>  (100) 
1.6046274262565572

>  <path>  (100) 
/opt/xchem-fragalysis-2/maxwin/BulkDock/SCRATCH/505735/C3933-P136/C3933-P136.minimised.mol

>  <scratch_subdir>  (100) 
/opt/xchem-fragalysis-2/maxwin/BulkDock/SCRATCH/505735/C3933-P136

>  <fragmenstein_runtime>  (100) 
10.732605695724487

>  <fragmenstein_outcome>  (100) 
too moved

>  <fragmenstein_mode>  (100) 
expansion

>  <fragmenstein_error>  (100) 


$$$$
C3933-P134
     RDKit          3D

 55 58  0  0  0  0  0  0  0  0999 V2000
    3.4098    2.4010   35.2374 C   0  0  0  0  0  0  0  0  0  0  0  0
    3.1509    1.1199   34.6500 N   0  0  0  0  0  0  0  0  0  0  0  0
    4.0844   -0.0795   34.4179 C   0  0  0  0  0  0  0  0  0  0  0  0
    5.2294   -0.1903   34.5965 O   0  0  0  0  0  0  0  0  0  0  0  0
    3.3208   -1.2324   33.8729 C   0  0  0  0  0  0  0  0  0  0  0  0
    3.4577   -2.4820   34.4815 C   0  0  0  0  0  0  0  0  0  0  0  0
    2.7074   -3.5652   34.0202 C   0  0  0  0  0  0  0  0  0  0  0  0
    1.8079   -3.3991   32.9603 C   0  0  0  0  0  0  0  0  0  0  0  0
    0.9908   -4.5305   32.4771 C   0  0  0  0  0  0  0  0  0  0  0  0
    1.2340   -4.9847   31.1029 C   0  0  0  0  0  0  0  0  0  0  0  0
    0.5661   -5.9988   30.5448 C   0  0  0  0  0  0  0  0  0  0  0  0
   -0.3500   -6.7332   31.3160 C   0  0  0  0  0  0  0  0  0  0  0  0
   -1.0917   -7.7779   31.0310 N   0  0  0  0  0  0  0  0  0  0  0  0
   -1.6848   -8.1798   32.1964 N   0  0  0  0  0  0  0  0  0  0  0  0
   -1.3085   -7.3710   33.1643 C   0  0  0  0  0  0  0  0  0  0  0  0
   -1.5379   -7.5408   34.4937 N   0  0  0  0  0  0  0  0  0  0  0  0
   -0.5452   -6.3361   32.6312 N   0  0  0  0  0  0  0  0  0  0  0  0
    0.0212   -5.1540   33.2156 C   0  0  0  0  0  0  0  0  0  0  0  0
   -0.5320   -4.7600   34.4442 N   0  0  0  0  0  0  0  0  0  0  0  0
   -0.3201   -3.5633   35.2775 C   0  0  0  0  0  0  0  0  0  0  0  0
   -0.6185   -2.1777   34.6413 C   0  0  0  0  0  0  0  0  0  0  0  0
   -0.1385   -1.1981   35.0600 O   0  0  0  0  0  0  0  0  0  0  0  0
   -1.6024   -2.3890   33.4670 N   0  0  0  0  0  0  0  0  0  0  0  0
   -2.2698   -1.4374   32.6296 C   0  0  0  0  0  0  0  0  0  0  0  0
   -1.5370   -1.1565   31.3432 C   0  0  0  0  0  0  0  0  0  0  0  0
   -0.8288    0.0401   31.1610 C   0  0  0  0  0  0  0  0  0  0  0  0
   -0.2539    0.3522   29.9243 C   0  0  0  0  0  0  0  0  0  0  0  0
   -0.3663   -0.5370   28.8594 C   0  0  0  0  0  0  0  0  0  0  0  0
   -1.0215   -1.7506   29.0421 C   0  0  0  0  0  0  0  0  0  0  0  0
   -1.5868   -2.0648   30.2796 C   0  0  0  0  0  0  0  0  0  0  0  0
    1.7511   -2.1639   32.3013 C   0  0  0  0  0  0  0  0  0  0  0  0
    2.4908   -1.0759   32.7609 C   0  0  0  0  0  0  0  0  0  0  0  0
    4.4880    2.5572   35.3129 H   0  0  0  0  0  0  0  0  0  0  0  0
    2.9623    2.4214   36.2336 H   0  0  0  0  0  0  0  0  0  0  0  0
    2.9543    3.1714   34.6118 H   0  0  0  0  0  0  0  0  0  0  0  0
    2.1910    0.8432   34.4644 H   0  0  0  0  0  0  0  0  0  0  0  0
    4.1358   -2.6045   35.3231 H   0  0  0  0  0  0  0  0  0  0  0  0
    2.8106   -4.5297   34.5119 H   0  0  0  0  0  0  0  0  0  0  0  0
    1.9675   -4.4390   30.5123 H   0  0  0  0  0  0  0  0  0  0  0  0
    0.7702   -6.2939   29.5312 H   0  0  0  0  0  0  0  0  0  0  0  0
   -0.8311   -7.1567   35.1200 H   0  0  0  0  0  0  0  0  0  0  0  0
   -1.6544   -8.5429   34.7284 H   0  0  0  0  0  0  0  0  0  0  0  0
   -1.4784   -5.1393   34.5933 H   0  0  0  0  0  0  0  0  0  0  0  0
   -0.9870   -3.6443   36.1447 H   0  0  0  0  0  0  0  0  0  0  0  0
    0.6960   -3.5632   35.6773 H   0  0  0  0  0  0  0  0  0  0  0  0
   -1.7514   -3.3813   33.3249 H   0  0  0  0  0  0  0  0  0  0  0  0
   -2.3901   -0.5122   33.2040 H   0  0  0  0  0  0  0  0  0  0  0  0
   -3.2722   -1.8224   32.4133 H   0  0  0  0  0  0  0  0  0  0  0  0
   -0.7343    0.7478   31.9810 H   0  0  0  0  0  0  0  0  0  0  0  0
    0.2643    1.2982   29.7867 H   0  0  0  0  0  0  0  0  0  0  0  0
    0.0506   -0.2888   27.8868 H   0  0  0  0  0  0  0  0  0  0  0  0
   -1.1225   -2.4428   28.2097 H   0  0  0  0  0  0  0  0  0  0  0  0
   -2.1072   -3.0091   30.3878 H   0  0  0  0  0  0  0  0  0  0  0  0
    1.1194   -2.0365   31.4281 H   0  0  0  0  0  0  0  0  0  0  0  0
    2.4210   -0.1210   32.2468 H   0  0  0  0  0  0  0  0  0  0  0  0
  1  2  1  0
  2  3  1  0
  3  4  2  0
  3  5  1  0
  5  6  2  0
  6  7  1  0
  7  8  2  0
  8  9  1  0
  9 10  1  0
 10 11  2  0
 11 12  1  0
 12 13  2  0
 13 14  1  0
 14 15  2  0
 15 16  1  0
 15 17  1  0
 17 18  1  0
 18 19  1  0
 19 20  1  0
 20 21  1  0
 21 22  2  0
 21 23  1  0
 23 24  1  0
 24 25  1  0
 25 26  2  0
 26 27  1  0
 27 28  2  0
 28 29  1  0
 29 30  2  0
  8 31  1  0
 31 32  2  0
 32  5  1  0
 18  9  2  0
 30 25  1  0
 17 12  1  0
  1 33  1  0
  1 34  1  0
  1 35  1  0
  2 36  1  0
  6 37  1  0
  7 38  1  0
 10 39  1  0
 11 40  1  0
 16 41  1  0
 16 42  1  0
 19 43  1  0
 20 44  1  0
 20 45  1  0
 23 46  1  0
 24 47  1  0
 24 48  1  0
 26 49  1  0
 27 50  1  0
 28 51  1  0
 29 52  1  0
 30 53  1  0
 31 54  1  0
 32 55  1  0
M  END
>  <Energy>  (101) 
150.70984705362699

>  <compound_id>  (101) 
3933

>  <target_id>  (101) 
1

>  <reference_id>  (101) 
134

>  <inspiration_ids>  (101) 
[136, 134]

>  <energy_score>  (101) 
-26.671077258148927

>  <distance_score>  (101) 
1.439486024135591

>  <path>  (101) 
/opt/xchem-fragalysis-2/maxwin/BulkDock/SCRATCH/505735/C3933-P134/C3933-P134.minimised.mol

>  <scratch_subdir>  (101) 
/opt/xchem-fragalysis-2/maxwin/BulkDock/SCRATCH/505735/C3933-P134

>  <fragmenstein_runtime>  (101) 
6.204062461853027

>  <fragmenstein_outcome>  (101) 
too moved

>  <fragmenstein_mode>  (101) 
expansion

>  <fragmenstein_error>  (101) 


$$$$
C3934-P136
     RDKit          3D

 67 70  0  0  0  0  0  0  0  0999 V2000
   -4.1958   -1.2130   34.0102 C   0  0  0  0  0  0  0  0  0  0  0  0
   -3.0596   -0.7245   33.1230 C   0  0  0  0  0  0  0  0  0  0  0  0
   -1.9915   -1.7983   32.8177 C   0  0  0  0  0  0  0  0  0  0  0  0
   -1.1914   -2.1604   34.1044 C   0  0  0  0  0  0  0  0  0  0  0  0
   -0.1872   -3.1719   33.8111 N   0  0  0  0  0  0  0  0  0  0  0  0
    1.0571   -2.7604   33.4106 C   0  0  0  0  0  0  0  0  0  0  0  0
    1.8574   -3.6160   32.7740 C   0  0  0  0  0  0  0  0  0  0  0  0
    3.3381   -3.4294   32.6204 C   0  0  0  0  0  0  0  0  0  0  0  0
    4.0038   -2.3730   33.5260 C   0  0  0  0  0  0  0  0  0  0  0  0
    4.3364   -1.0643   32.7860 C   0  0  0  0  0  0  0  0  0  0  0  0
    3.1261   -0.3325   32.2158 C   0  0  0  0  0  0  0  0  0  0  0  0
    5.2173   -0.1389   33.6480 C   0  0  0  0  0  0  0  0  0  0  0  0
    6.3059    0.1328   33.3263 O   0  0  0  0  0  0  0  0  0  0  0  0
    4.3970    0.3017   34.8865 N   0  0  0  0  0  0  0  0  0  0  0  0
    4.7781    1.0859   36.0243 C   0  0  0  0  0  0  0  0  0  0  0  0
    1.2169   -4.8109   32.2247 C   0  0  0  0  0  0  0  0  0  0  0  0
    1.5896   -5.3949   30.9407 C   0  0  0  0  0  0  0  0  0  0  0  0
    0.9059   -6.4155   30.4024 C   0  0  0  0  0  0  0  0  0  0  0  0
   -0.1259   -7.0438   31.1343 C   0  0  0  0  0  0  0  0  0  0  0  0
   -0.9004   -8.0657   30.8569 N   0  0  0  0  0  0  0  0  0  0  0  0
   -1.5956   -8.3629   31.9969 N   0  0  0  0  0  0  0  0  0  0  0  0
   -1.2693   -7.4964   32.9342 C   0  0  0  0  0  0  0  0  0  0  0  0
   -1.6097   -7.5667   34.2376 N   0  0  0  0  0  0  0  0  0  0  0  0
   -0.4183   -6.5411   32.3958 N   0  0  0  0  0  0  0  0  0  0  0  0
    0.1589   -5.3602   32.8755 C   0  0  0  0  0  0  0  0  0  0  0  0
   -0.4356   -4.5373   33.9649 C   0  0  0  0  0  0  0  0  0  0  0  0
   -1.0924   -5.0320   34.8704 O   0  0  0  0  0  0  0  0  0  0  0  0
   -1.1724   -1.3540   31.5979 C   0  0  0  0  0  0  0  0  0  0  0  0
   -0.3967   -0.1888   31.5981 C   0  0  0  0  0  0  0  0  0  0  0  0
    0.2768    0.2274   30.4424 C   0  0  0  0  0  0  0  0  0  0  0  0
    0.2138   -0.5181   29.2621 C   0  0  0  0  0  0  0  0  0  0  0  0
    0.9256   -0.0791   28.0142 C   0  0  0  0  0  0  0  0  0  0  0  0
    2.0428    0.7521   28.3151 O   0  0  0  0  0  0  0  0  0  0  0  0
   -0.5784   -1.6700   29.2482 C   0  0  0  0  0  0  0  0  0  0  0  0
   -1.2507   -2.0866   30.4024 C   0  0  0  0  0  0  0  0  0  0  0  0
   -4.6966   -2.0774   33.5636 H   0  0  0  0  0  0  0  0  0  0  0  0
   -4.9419   -0.4205   34.1296 H   0  0  0  0  0  0  0  0  0  0  0  0
   -3.8442   -1.4879   35.0081 H   0  0  0  0  0  0  0  0  0  0  0  0
   -3.5017   -0.3840   32.1818 H   0  0  0  0  0  0  0  0  0  0  0  0
   -2.5962    0.1553   33.5863 H   0  0  0  0  0  0  0  0  0  0  0  0
   -2.5261   -2.7104   32.5181 H   0  0  0  0  0  0  0  0  0  0  0  0
   -0.7064   -1.2720   34.5274 H   0  0  0  0  0  0  0  0  0  0  0  0
   -1.8646   -2.5576   34.8701 H   0  0  0  0  0  0  0  0  0  0  0  0
    1.3483   -1.7701   33.7279 H   0  0  0  0  0  0  0  0  0  0  0  0
    3.5857   -3.2393   31.5692 H   0  0  0  0  0  0  0  0  0  0  0  0
    3.8089   -4.3906   32.8725 H   0  0  0  0  0  0  0  0  0  0  0  0
    3.4359   -2.1973   34.4453 H   0  0  0  0  0  0  0  0  0  0  0  0
    4.9596   -2.7941   33.8699 H   0  0  0  0  0  0  0  0  0  0  0  0
    4.9680   -1.3345   31.9266 H   0  0  0  0  0  0  0  0  0  0  0  0
    2.4153   -0.0242   32.9854 H   0  0  0  0  0  0  0  0  0  0  0  0
    3.4472    0.5809   31.7018 H   0  0  0  0  0  0  0  0  0  0  0  0
    2.6127   -0.9557   31.4803 H   0  0  0  0  0  0  0  0  0  0  0  0
    3.4549   -0.0560   34.8122 H   0  0  0  0  0  0  0  0  0  0  0  0
    4.6322    0.4851   36.9245 H   0  0  0  0  0  0  0  0  0  0  0  0
    4.1404    1.9715   36.0649 H   0  0  0  0  0  0  0  0  0  0  0  0
    5.8259    1.3795   35.9324 H   0  0  0  0  0  0  0  0  0  0  0  0
    2.3998   -4.9387   30.3784 H   0  0  0  0  0  0  0  0  0  0  0  0
    1.1990   -6.8193   29.4459 H   0  0  0  0  0  0  0  0  0  0  0  0
   -1.6901   -8.5175   34.6236 H   0  0  0  0  0  0  0  0  0  0  0  0
   -1.2427   -6.8890   34.9097 H   0  0  0  0  0  0  0  0  0  0  0  0
   -0.3241    0.4259   32.4914 H   0  0  0  0  0  0  0  0  0  0  0  0
    0.8605    1.1459   30.4706 H   0  0  0  0  0  0  0  0  0  0  0  0
    0.2356    0.4769   27.3728 H   0  0  0  0  0  0  0  0  0  0  0  0
    1.3117   -0.9547   27.4880 H   0  0  0  0  0  0  0  0  0  0  0  0
    2.4626    0.9574   27.4623 H   0  0  0  0  0  0  0  0  0  0  0  0
   -0.6907   -2.2510   28.3346 H   0  0  0  0  0  0  0  0  0  0  0  0
   -1.8590   -2.9843   30.3416 H   0  0  0  0  0  0  0  0  0  0  0  0
  1  2  1  0
  2  3  1  0
  3  4  1  0
  4  5  1  0
  5  6  1  0
  6  7  2  0
  7  8  1  0
  8  9  1  0
  9 10  1  0
 10 11  1  0
 10 12  1  0
 12 13  2  0
 12 14  1  0
 14 15  1  0
  7 16  1  0
 16 17  1  0
 17 18  2  0
 18 19  1  0
 19 20  2  0
 20 21  1  0
 21 22  2  0
 22 23  1  0
 22 24  1  0
 24 25  1  0
 25 26  1  0
 26 27  2  0
  3 28  1  0
 28 29  2  0
 29 30  1  0
 30 31  2  0
 31 32  1  0
 32 33  1  0
 31 34  1  0
 34 35  2  0
 26  5  1  0
 35 28  1  0
 25 16  2  0
 24 19  1  0
  1 36  1  0
  1 37  1  0
  1 38  1  0
  2 39  1  0
  2 40  1  0
  3 41  1  0
  4 42  1  0
  4 43  1  0
  6 44  1  0
  8 45  1  0
  8 46  1  0
  9 47  1  0
  9 48  1  0
 10 49  1  0
 11 50  1  0
 11 51  1  0
 11 52  1  0
 14 53  1  0
 15 54  1  0
 15 55  1  0
 15 56  1  0
 17 57  1  0
 18 58  1  0
 23 59  1  0
 23 60  1  0
 29 61  1  0
 30 62  1  0
 32 63  1  0
 32 64  1  0
 33 65  1  0
 34 66  1  0
 35 67  1  0
M  END
>  <Energy>  (102) 
75.222123078786083

>  <compound_id>  (102) 
3934

>  <target_id>  (102) 
1

>  <reference_id>  (102) 
136

>  <inspiration_ids>  (102) 
[136, 135]

>  <energy_score>  (102) 
-45.55896599714498

>  <distance_score>  (102) 
1.5978118077352885

>  <path>  (102) 
/opt/xchem-fragalysis-2/maxwin/BulkDock/SCRATCH/505735/C3934-P136/C3934-P136.minimised.mol

>  <scratch_subdir>  (102) 
/opt/xchem-fragalysis-2/maxwin/BulkDock/SCRATCH/505735/C3934-P136

>  <fragmenstein_runtime>  (102) 
10.07125210762024

>  <fragmenstein_outcome>  (102) 
too moved

>  <fragmenstein_mode>  (102) 
expansion

>  <fragmenstein_error>  (102) 


$$$$
C3934-P135
     RDKit          3D

 67 70  0  0  0  0  0  0  0  0999 V2000
   -4.2736   -1.4423   33.9651 C   0  0  0  0  0  0  0  0  0  0  0  0
   -3.1317   -0.8443   33.1536 C   0  0  0  0  0  0  0  0  0  0  0  0
   -2.0081   -1.8567   32.8271 C   0  0  0  0  0  0  0  0  0  0  0  0
   -1.2073   -2.2088   34.1190 C   0  0  0  0  0  0  0  0  0  0  0  0
   -0.1782   -3.1923   33.8260 N   0  0  0  0  0  0  0  0  0  0  0  0
    1.0523   -2.7556   33.4081 C   0  0  0  0  0  0  0  0  0  0  0  0
    1.8553   -3.6031   32.7629 C   0  0  0  0  0  0  0  0  0  0  0  0
    3.3325   -3.4087   32.5937 C   0  0  0  0  0  0  0  0  0  0  0  0
    3.9990   -2.3364   33.4792 C   0  0  0  0  0  0  0  0  0  0  0  0
    4.2953   -1.0284   32.7228 C   0  0  0  0  0  0  0  0  0  0  0  0
    3.0602   -0.3076   32.1936 C   0  0  0  0  0  0  0  0  0  0  0  0
    5.1979   -0.0887   33.5454 C   0  0  0  0  0  0  0  0  0  0  0  0
    6.2734    0.1851   33.1846 O   0  0  0  0  0  0  0  0  0  0  0  0
    4.4321    0.3289   34.8255 N   0  0  0  0  0  0  0  0  0  0  0  0
    4.7949    1.2397   35.8721 C   0  0  0  0  0  0  0  0  0  0  0  0
    1.2138   -4.8011   32.2179 C   0  0  0  0  0  0  0  0  0  0  0  0
    1.5548   -5.3650   30.9176 C   0  0  0  0  0  0  0  0  0  0  0  0
    0.8645   -6.3851   30.3870 C   0  0  0  0  0  0  0  0  0  0  0  0
   -0.1473   -7.0263   31.1354 C   0  0  0  0  0  0  0  0  0  0  0  0
   -0.9207   -8.0503   30.8633 N   0  0  0  0  0  0  0  0  0  0  0  0
   -1.6058   -8.3516   32.0078 N   0  0  0  0  0  0  0  0  0  0  0  0
   -1.2778   -7.4849   32.9435 C   0  0  0  0  0  0  0  0  0  0  0  0
   -1.6322   -7.5520   34.2440 N   0  0  0  0  0  0  0  0  0  0  0  0
   -0.4164   -6.5371   32.4077 N   0  0  0  0  0  0  0  0  0  0  0  0
    0.1776   -5.3666   32.8900 C   0  0  0  0  0  0  0  0  0  0  0  0
   -0.3667   -4.5639   34.0174 C   0  0  0  0  0  0  0  0  0  0  0  0
   -0.9101   -5.0770   34.9861 O   0  0  0  0  0  0  0  0  0  0  0  0
   -1.2056   -1.3393   31.6239 C   0  0  0  0  0  0  0  0  0  0  0  0
   -0.4728   -0.1474   31.6728 C   0  0  0  0  0  0  0  0  0  0  0  0
    0.1559    0.3565   30.5279 C   0  0  0  0  0  0  0  0  0  0  0  0
    0.0828   -0.3234   29.3094 C   0  0  0  0  0  0  0  0  0  0  0  0
    0.7282    0.2659   28.0896 C   0  0  0  0  0  0  0  0  0  0  0  0
   -0.1833    1.1160   27.4108 O   0  0  0  0  0  0  0  0  0  0  0  0
   -0.6480   -1.5123   29.2471 C   0  0  0  0  0  0  0  0  0  0  0  0
   -1.2758   -2.0160   30.3928 C   0  0  0  0  0  0  0  0  0  0  0  0
   -4.7065   -2.3080   33.4539 H   0  0  0  0  0  0  0  0  0  0  0  0
   -5.0669   -0.6992   34.0964 H   0  0  0  0  0  0  0  0  0  0  0  0
   -3.9453   -1.7541   34.9603 H   0  0  0  0  0  0  0  0  0  0  0  0
   -3.5561   -0.4530   32.2232 H   0  0  0  0  0  0  0  0  0  0  0  0
   -2.7221    0.0204   33.6907 H   0  0  0  0  0  0  0  0  0  0  0  0
   -2.4921   -2.7877   32.4994 H   0  0  0  0  0  0  0  0  0  0  0  0
   -0.7469   -1.3131   34.5538 H   0  0  0  0  0  0  0  0  0  0  0  0
   -1.8769   -2.6317   34.8744 H   0  0  0  0  0  0  0  0  0  0  0  0
    1.3309   -1.7622   33.7266 H   0  0  0  0  0  0  0  0  0  0  0  0
    3.5692   -3.2293   31.5381 H   0  0  0  0  0  0  0  0  0  0  0  0
    3.8116   -4.3637   32.8531 H   0  0  0  0  0  0  0  0  0  0  0  0
    3.4450   -2.1628   34.4074 H   0  0  0  0  0  0  0  0  0  0  0  0
    4.9678   -2.7402   33.8070 H   0  0  0  0  0  0  0  0  0  0  0  0
    4.8979   -1.2969   31.8422 H   0  0  0  0  0  0  0  0  0  0  0  0
    2.3770   -0.0006   32.9886 H   0  0  0  0  0  0  0  0  0  0  0  0
    3.3561    0.6062   31.6653 H   0  0  0  0  0  0  0  0  0  0  0  0
    2.5233   -0.9360   31.4793 H   0  0  0  0  0  0  0  0  0  0  0  0
    3.4861   -0.0231   34.7829 H   0  0  0  0  0  0  0  0  0  0  0  0
    4.5680    0.7756   36.8340 H   0  0  0  0  0  0  0  0  0  0  0  0
    4.2075    2.1530   35.7541 H   0  0  0  0  0  0  0  0  0  0  0  0
    5.8595    1.4722   35.8003 H   0  0  0  0  0  0  0  0  0  0  0  0
    2.3508   -4.9012   30.3414 H   0  0  0  0  0  0  0  0  0  0  0  0
    1.1425   -6.7805   29.4227 H   0  0  0  0  0  0  0  0  0  0  0  0
   -1.7173   -8.5054   34.6138 H   0  0  0  0  0  0  0  0  0  0  0  0
   -1.2501   -6.8768   34.9130 H   0  0  0  0  0  0  0  0  0  0  0  0
   -0.4139    0.4255   32.5947 H   0  0  0  0  0  0  0  0  0  0  0  0
    0.6904    1.3031   30.5882 H   0  0  0  0  0  0  0  0  0  0  0  0
    1.6158    0.8495   28.3561 H   0  0  0  0  0  0  0  0  0  0  0  0
    1.0605   -0.5262   27.4168 H   0  0  0  0  0  0  0  0  0  0  0  0
   -1.0765    0.7528   27.5516 H   0  0  0  0  0  0  0  0  0  0  0  0
   -0.7563   -2.0450   28.3031 H   0  0  0  0  0  0  0  0  0  0  0  0
   -1.8535   -2.9318   30.2964 H   0  0  0  0  0  0  0  0  0  0  0  0
  1  2  1  0
  2  3  1  0
  3  4  1  0
  4  5  1  0
  5  6  1  0
  6  7  2  0
  7  8  1  0
  8  9  1  0
  9 10  1  0
 10 11  1  0
 10 12  1  0
 12 13  2  0
 12 14  1  0
 14 15  1  0
  7 16  1  0
 16 17  1  0
 17 18  2  0
 18 19  1  0
 19 20  2  0
 20 21  1  0
 21 22  2  0
 22 23  1  0
 22 24  1  0
 24 25  1  0
 25 26  1  0
 26 27  2  0
  3 28  1  0
 28 29  2  0
 29 30  1  0
 30 31  2  0
 31 32  1  0
 32 33  1  0
 31 34  1  0
 34 35  2  0
 26  5  1  0
 35 28  1  0
 25 16  2  0
 24 19  1  0
  1 36  1  0
  1 37  1  0
  1 38  1  0
  2 39  1  0
  2 40  1  0
  3 41  1  0
  4 42  1  0
  4 43  1  0
  6 44  1  0
  8 45  1  0
  8 46  1  0
  9 47  1  0
  9 48  1  0
 10 49  1  0
 11 50  1  0
 11 51  1  0
 11 52  1  0
 14 53  1  0
 15 54  1  0
 15 55  1  0
 15 56  1  0
 17 57  1  0
 18 58  1  0
 23 59  1  0
 23 60  1  0
 29 61  1  0
 30 62  1  0
 32 63  1  0
 32 64  1  0
 33 65  1  0
 34 66  1  0
 35 67  1  0
M  END
>  <Energy>  (103) 
76.722005004186812

>  <compound_id>  (103) 
3934

>  <target_id>  (103) 
1

>  <reference_id>  (103) 
135

>  <inspiration_ids>  (103) 
[136, 135]

>  <energy_score>  (103) 
-44.05908407174496

>  <distance_score>  (103) 
1.6000418241746759

>  <path>  (103) 
/opt/xchem-fragalysis-2/maxwin/BulkDock/SCRATCH/505735/C3934-P135/C3934-P135.minimised.mol

>  <scratch_subdir>  (103) 
/opt/xchem-fragalysis-2/maxwin/BulkDock/SCRATCH/505735/C3934-P135

>  <fragmenstein_runtime>  (103) 
9.23363733291626

>  <fragmenstein_outcome>  (103) 
too moved

>  <fragmenstein_mode>  (103) 
expansion

>  <fragmenstein_error>  (103) 


$$$$
C3934-P136
     RDKit          3D

 67 70  0  0  0  0  0  0  0  0999 V2000
    4.9614   -6.1655   35.5541 C   0  0  0  0  0  0  0  0  0  0  0  0
    4.4917   -6.1499   37.0013 C   0  0  0  0  0  0  0  0  0  0  0  0
    2.9656   -6.3359   37.1677 C   0  0  0  0  0  0  0  0  0  0  0  0
    2.1453   -5.0557   36.8441 C   0  0  0  0  0  0  0  0  0  0  0  0
    1.8225   -4.8939   35.4170 N   0  0  0  0  0  0  0  0  0  0  0  0
    2.3724   -3.8534   34.7118 C   0  0  0  0  0  0  0  0  0  0  0  0
    2.1347   -3.6749   33.4049 C   0  0  0  0  0  0  0  0  0  0  0  0
    2.7337   -2.5107   32.6341 C   0  0  0  0  0  0  0  0  0  0  0  0
    3.1694   -1.2648   33.4242 C   0  0  0  0  0  0  0  0  0  0  0  0
    2.0125   -0.4974   34.1036 C   0  0  0  0  0  0  0  0  0  0  0  0
    1.0783    0.1375   33.0696 C   0  0  0  0  0  0  0  0  0  0  0  0
    2.5719    0.5936   35.0458 C   0  0  0  0  0  0  0  0  0  0  0  0
    3.7111    0.9434   34.9421 O   0  0  0  0  0  0  0  0  0  0  0  0
    1.5413    1.0137   35.9532 N   0  0  0  0  0  0  0  0  0  0  0  0
    1.5290    2.0452   36.9506 C   0  0  0  0  0  0  0  0  0  0  0  0
    1.2793   -4.6434   32.6944 C   0  0  0  0  0  0  0  0  0  0  0  0
    1.0847   -4.6033   31.2360 C   0  0  0  0  0  0  0  0  0  0  0  0
    0.3321   -5.4922   30.5752 C   0  0  0  0  0  0  0  0  0  0  0  0
   -0.3270   -6.5134   31.2874 C   0  0  0  0  0  0  0  0  0  0  0  0
   -1.0553   -7.5199   30.8663 N   0  0  0  0  0  0  0  0  0  0  0  0
   -1.5278   -8.1660   31.9709 N   0  0  0  0  0  0  0  0  0  0  0  0
   -1.0963   -7.5400   33.0470 C   0  0  0  0  0  0  0  0  0  0  0  0
   -1.4708   -7.8144   34.3152 N   0  0  0  0  0  0  0  0  0  0  0  0
   -0.2219   -6.5183   32.6763 N   0  0  0  0  0  0  0  0  0  0  0  0
    0.6250   -5.6265   33.3808 C   0  0  0  0  0  0  0  0  0  0  0  0
    0.9070   -5.7709   34.8488 C   0  0  0  0  0  0  0  0  0  0  0  0
    0.4035   -6.6732   35.5128 O   0  0  0  0  0  0  0  0  0  0  0  0
    2.5917   -6.8185   38.5672 C   0  0  0  0  0  0  0  0  0  0  0  0
    3.2502   -6.3844   39.7248 C   0  0  0  0  0  0  0  0  0  0  0  0
    2.8533   -6.8444   40.9844 C   0  0  0  0  0  0  0  0  0  0  0  0
    1.7866   -7.7414   41.1146 C   0  0  0  0  0  0  0  0  0  0  0  0
    1.3434   -8.2088   42.4729 C   0  0  0  0  0  0  0  0  0  0  0  0
    0.4569   -7.2682   43.0624 O   0  0  0  0  0  0  0  0  0  0  0  0
    1.1075   -8.1523   39.9649 C   0  0  0  0  0  0  0  0  0  0  0  0
    1.5082   -7.7005   38.7071 C   0  0  0  0  0  0  0  0  0  0  0  0
    4.6479   -5.2708   35.0154 H   0  0  0  0  0  0  0  0  0  0  0  0
    6.0554   -6.1975   35.5177 H   0  0  0  0  0  0  0  0  0  0  0  0
    4.5819   -7.0452   35.0263 H   0  0  0  0  0  0  0  0  0  0  0  0
    5.0130   -6.9691   37.5143 H   0  0  0  0  0  0  0  0  0  0  0  0
    4.8256   -5.2200   37.4769 H   0  0  0  0  0  0  0  0  0  0  0  0
    2.6821   -7.1441   36.4805 H   0  0  0  0  0  0  0  0  0  0  0  0
    2.6629   -4.1643   37.2208 H   0  0  0  0  0  0  0  0  0  0  0  0
    1.1785   -5.0821   37.3656 H   0  0  0  0  0  0  0  0  0  0  0  0
    3.0233   -3.1937   35.2770 H   0  0  0  0  0  0  0  0  0  0  0  0
    3.6076   -2.8899   32.0875 H   0  0  0  0  0  0  0  0  0  0  0  0
    2.0268   -2.1624   31.8748 H   0  0  0  0  0  0  0  0  0  0  0  0
    3.6819   -0.5877   32.7267 H   0  0  0  0  0  0  0  0  0  0  0  0
    3.9306   -1.5408   34.1643 H   0  0  0  0  0  0  0  0  0  0  0  0
    1.4359   -1.1949   34.7224 H   0  0  0  0  0  0  0  0  0  0  0  0
    1.6356    0.7822   32.3810 H   0  0  0  0  0  0  0  0  0  0  0  0
    0.5561   -0.6231   32.4819 H   0  0  0  0  0  0  0  0  0  0  0  0
    0.3107    0.7597   33.5411 H   0  0  0  0  0  0  0  0  0  0  0  0
    0.6714    0.5615   35.6973 H   0  0  0  0  0  0  0  0  0  0  0  0
    2.5506    2.3743   37.1537 H   0  0  0  0  0  0  0  0  0  0  0  0
    0.9391    2.8835   36.5728 H   0  0  0  0  0  0  0  0  0  0  0  0
    1.0678    1.6488   37.8576 H   0  0  0  0  0  0  0  0  0  0  0  0
    1.5765   -3.8308   30.6532 H   0  0  0  0  0  0  0  0  0  0  0  0
    0.2000   -5.4251   29.5035 H   0  0  0  0  0  0  0  0  0  0  0  0
   -0.8503   -7.5171   35.0752 H   0  0  0  0  0  0  0  0  0  0  0  0
   -1.6862   -8.8080   34.4856 H   0  0  0  0  0  0  0  0  0  0  0  0
    4.0762   -5.6802   39.6694 H   0  0  0  0  0  0  0  0  0  0  0  0
    3.3779   -6.4902   41.8698 H   0  0  0  0  0  0  0  0  0  0  0  0
    0.8294   -9.1735   42.4040 H   0  0  0  0  0  0  0  0  0  0  0  0
    2.2031   -8.3456   43.1373 H   0  0  0  0  0  0  0  0  0  0  0  0
    0.1391   -6.6815   42.3537 H   0  0  0  0  0  0  0  0  0  0  0  0
    0.2588   -8.8304   40.0309 H   0  0  0  0  0  0  0  0  0  0  0  0
    0.9536   -8.0451   37.8334 H   0  0  0  0  0  0  0  0  0  0  0  0
  1  2  1  0
  2  3  1  0
  3  4  1  0
  4  5  1  0
  5  6  1  0
  6  7  2  0
  7  8  1  0
  8  9  1  0
  9 10  1  0
 10 11  1  0
 10 12  1  0
 12 13  2  0
 12 14  1  0
 14 15  1  0
  7 16  1  0
 16 17  1  0
 17 18  2  0
 18 19  1  0
 19 20  2  0
 20 21  1  0
 21 22  2  0
 22 23  1  0
 22 24  1  0
 24 25  1  0
 25 26  1  0
 26 27  2  0
  3 28  1  0
 28 29  2  0
 29 30  1  0
 30 31  2  0
 31 32  1  0
 32 33  1  0
 31 34  1  0
 34 35  2  0
 26  5  1  0
 35 28  1  0
 25 16  2  0
 24 19  1  0
  1 36  1  0
  1 37  1  0
  1 38  1  0
  2 39  1  0
  2 40  1  0
  3 41  1  0
  4 42  1  0
  4 43  1  0
  6 44  1  0
  8 45  1  0
  8 46  1  0
  9 47  1  0
  9 48  1  0
 10 49  1  0
 11 50  1  0
 11 51  1  0
 11 52  1  0
 14 53  1  0
 15 54  1  0
 15 55  1  0
 15 56  1  0
 17 57  1  0
 18 58  1  0
 23 59  1  0
 23 60  1  0
 29 61  1  0
 30 62  1  0
 32 63  1  0
 32 64  1  0
 33 65  1  0
 34 66  1  0
 35 67  1  0
M  END
>  <Energy>  (104) 
38.987361161816835

>  <compound_id>  (104) 
3934

>  <target_id>  (104) 
1

>  <reference_id>  (104) 
136

>  <inspiration_ids>  (104) 
[136, 140]

>  <energy_score>  (104) 
-93.63845513093531

>  <distance_score>  (104) 
1.2477880355658146

>  <path>  (104) 
/opt/xchem-fragalysis-2/maxwin/BulkDock/SCRATCH/505735/C3934-P136/C3934-P136.minimised.mol

>  <scratch_subdir>  (104) 
/opt/xchem-fragalysis-2/maxwin/BulkDock/SCRATCH/505735/C3934-P136

>  <fragmenstein_runtime>  (104) 
10.092455387115479

>  <fragmenstein_outcome>  (104) 
too moved

>  <fragmenstein_mode>  (104) 
expansion

>  <fragmenstein_error>  (104) 


$$$$
C3934-P140
     RDKit          3D

 67 70  0  0  0  0  0  0  0  0999 V2000
    4.9588   -6.3554   35.5097 C   0  0  0  0  0  0  0  0  0  0  0  0
    4.5320   -6.0309   36.9344 C   0  0  0  0  0  0  0  0  0  0  0  0
    3.0212   -6.2443   37.1881 C   0  0  0  0  0  0  0  0  0  0  0  0
    2.1580   -5.0032   36.8390 C   0  0  0  0  0  0  0  0  0  0  0  0
    1.9009   -4.8351   35.4007 N   0  0  0  0  0  0  0  0  0  0  0  0
    2.5154   -3.8096   34.7276 C   0  0  0  0  0  0  0  0  0  0  0  0
    2.3138   -3.5866   33.4227 C   0  0  0  0  0  0  0  0  0  0  0  0
    3.0009   -2.4274   32.7276 C   0  0  0  0  0  0  0  0  0  0  0  0
    3.2120   -1.1000   33.4901 C   0  0  0  0  0  0  0  0  0  0  0  0
    1.9599   -0.2621   33.8754 C   0  0  0  0  0  0  0  0  0  0  0  0
    0.7475   -0.5283   32.9788 C   0  0  0  0  0  0  0  0  0  0  0  0
    1.6020   -0.3612   35.3851 C   0  0  0  0  0  0  0  0  0  0  0  0
    2.1590   -1.1630   36.0751 O   0  0  0  0  0  0  0  0  0  0  0  0
    0.6178    0.6322   35.7110 N   0  0  0  0  0  0  0  0  0  0  0  0
   -0.0694    0.9086   36.9403 C   0  0  0  0  0  0  0  0  0  0  0  0
    1.4303   -4.4981   32.6708 C   0  0  0  0  0  0  0  0  0  0  0  0
    1.2556   -4.4207   31.2104 C   0  0  0  0  0  0  0  0  0  0  0  0
    0.4706   -5.2595   30.5207 C   0  0  0  0  0  0  0  0  0  0  0  0
   -0.2475   -6.2610   31.2027 C   0  0  0  0  0  0  0  0  0  0  0  0
   -1.0147   -7.2281   30.7570 N   0  0  0  0  0  0  0  0  0  0  0  0
   -1.5417   -7.8608   31.8457 N   0  0  0  0  0  0  0  0  0  0  0  0
   -1.1027   -7.2625   32.9340 C   0  0  0  0  0  0  0  0  0  0  0  0
   -1.5216   -7.5180   34.1932 N   0  0  0  0  0  0  0  0  0  0  0  0
   -0.1605   -6.2949   32.5910 N   0  0  0  0  0  0  0  0  0  0  0  0
    0.7259   -5.4697   33.3239 C   0  0  0  0  0  0  0  0  0  0  0  0
    0.9964   -5.6863   34.7863 C   0  0  0  0  0  0  0  0  0  0  0  0
    0.4935   -6.6304   35.3933 O   0  0  0  0  0  0  0  0  0  0  0  0
    2.7303   -6.6501   38.6292 C   0  0  0  0  0  0  0  0  0  0  0  0
    3.4175   -6.1151   39.7258 C   0  0  0  0  0  0  0  0  0  0  0  0
    3.1141   -6.5312   41.0260 C   0  0  0  0  0  0  0  0  0  0  0  0
    2.1094   -7.4786   41.2594 C   0  0  0  0  0  0  0  0  0  0  0  0
    1.7924   -7.9249   42.6602 C   0  0  0  0  0  0  0  0  0  0  0  0
    1.2912   -6.8323   43.4230 O   0  0  0  0  0  0  0  0  0  0  0  0
    1.4030   -7.9913   40.1699 C   0  0  0  0  0  0  0  0  0  0  0  0
    1.7065   -7.5775   38.8722 C   0  0  0  0  0  0  0  0  0  0  0  0
    4.4870   -5.7013   34.7762 H   0  0  0  0  0  0  0  0  0  0  0  0
    6.0425   -6.2379   35.4076 H   0  0  0  0  0  0  0  0  0  0  0  0
    4.7104   -7.3913   35.2583 H   0  0  0  0  0  0  0  0  0  0  0  0
    5.1180   -6.6892   37.5890 H   0  0  0  0  0  0  0  0  0  0  0  0
    4.8253   -5.0036   37.1810 H   0  0  0  0  0  0  0  0  0  0  0  0
    2.7141   -7.0920   36.5609 H   0  0  0  0  0  0  0  0  0  0  0  0
    2.6070   -4.0914   37.2537 H   0  0  0  0  0  0  0  0  0  0  0  0
    1.1708   -5.0903   37.3139 H   0  0  0  0  0  0  0  0  0  0  0  0
    3.1887   -3.1940   35.3167 H   0  0  0  0  0  0  0  0  0  0  0  0
    3.9867   -2.7883   32.4015 H   0  0  0  0  0  0  0  0  0  0  0  0
    2.4796   -2.1587   31.8059 H   0  0  0  0  0  0  0  0  0  0  0  0
    3.8037   -0.4676   32.8112 H   0  0  0  0  0  0  0  0  0  0  0  0
    3.8703   -1.2556   34.3523 H   0  0  0  0  0  0  0  0  0  0  0  0
    2.2555    0.7879   33.7284 H   0  0  0  0  0  0  0  0  0  0  0  0
   -0.0514    0.2014   33.1451 H   0  0  0  0  0  0  0  0  0  0  0  0
    0.3134   -1.5138   33.1718 H   0  0  0  0  0  0  0  0  0  0  0  0
    1.0164   -0.4567   31.9201 H   0  0  0  0  0  0  0  0  0  0  0  0
    0.4293    1.1920   34.8892 H   0  0  0  0  0  0  0  0  0  0  0  0
    0.2346    0.1902   37.7045 H   0  0  0  0  0  0  0  0  0  0  0  0
    0.1814    1.9230   37.2575 H   0  0  0  0  0  0  0  0  0  0  0  0
   -1.1445    0.8351   36.7607 H   0  0  0  0  0  0  0  0  0  0  0  0
    1.7942   -3.6677   30.6460 H   0  0  0  0  0  0  0  0  0  0  0  0
    0.3603   -5.1675   29.4484 H   0  0  0  0  0  0  0  0  0  0  0  0
   -1.7904   -8.4984   34.3347 H   0  0  0  0  0  0  0  0  0  0  0  0
   -0.8851   -7.2653   34.9567 H   0  0  0  0  0  0  0  0  0  0  0  0
    4.1982   -5.3714   39.5873 H   0  0  0  0  0  0  0  0  0  0  0  0
    3.6643   -6.1091   41.8650 H   0  0  0  0  0  0  0  0  0  0  0  0
    1.0361   -8.7166   42.6656 H   0  0  0  0  0  0  0  0  0  0  0  0
    2.6903   -8.3161   43.1498 H   0  0  0  0  0  0  0  0  0  0  0  0
    0.7938   -6.2678   42.8053 H   0  0  0  0  0  0  0  0  0  0  0  0
    0.6169   -8.7308   40.3153 H   0  0  0  0  0  0  0  0  0  0  0  0
    1.1323   -7.9979   38.0481 H   0  0  0  0  0  0  0  0  0  0  0  0
  1  2  1  0
  2  3  1  0
  3  4  1  0
  4  5  1  0
  5  6  1  0
  6  7  2  0
  7  8  1  0
  8  9  1  0
  9 10  1  0
 10 11  1  0
 10 12  1  0
 12 13  2  0
 12 14  1  0
 14 15  1  0
  7 16  1  0
 16 17  1  0
 17 18  2  0
 18 19  1  0
 19 20  2  0
 20 21  1  0
 21 22  2  0
 22 23  1  0
 22 24  1  0
 24 25  1  0
 25 26  1  0
 26 27  2  0
  3 28  1  0
 28 29  2  0
 29 30  1  0
 30 31  2  0
 31 32  1  0
 32 33  1  0
 31 34  1  0
 34 35  2  0
 26  5  1  0
 35 28  1  0
 25 16  2  0
 24 19  1  0
  1 36  1  0
  1 37  1  0
  1 38  1  0
  2 39  1  0
  2 40  1  0
  3 41  1  0
  4 42  1  0
  4 43  1  0
  6 44  1  0
  8 45  1  0
  8 46  1  0
  9 47  1  0
  9 48  1  0
 10 49  1  0
 11 50  1  0
 11 51  1  0
 11 52  1  0
 14 53  1  0
 15 54  1  0
 15 55  1  0
 15 56  1  0
 17 57  1  0
 18 58  1  0
 23 59  1  0
 23 60  1  0
 29 61  1  0
 30 62  1  0
 32 63  1  0
 32 64  1  0
 33 65  1  0
 34 66  1  0
 35 67  1  0
M  END
>  <Energy>  (105) 
41.518407463019699

>  <compound_id>  (105) 
3934

>  <target_id>  (105) 
1

>  <reference_id>  (105) 
140

>  <inspiration_ids>  (105) 
[136, 140]

>  <energy_score>  (105) 
-91.10740882973457

>  <distance_score>  (105) 
1.5152553550319767

>  <path>  (105) 
/opt/xchem-fragalysis-2/maxwin/BulkDock/SCRATCH/505735/C3934-P140/C3934-P140.minimised.mol

>  <scratch_subdir>  (105) 
/opt/xchem-fragalysis-2/maxwin/BulkDock/SCRATCH/505735/C3934-P140

>  <fragmenstein_runtime>  (105) 
10.011993169784546

>  <fragmenstein_outcome>  (105) 
too moved

>  <fragmenstein_mode>  (105) 
expansion

>  <fragmenstein_error>  (105) 


$$$$
C3935-P136
     RDKit          3D

 57 61  0  0  0  0  0  0  0  0999 V2000
   -1.2292    4.7061   26.3647 C   0  0  0  0  0  0  0  0  0  0  0  0
   -0.9283    3.4625   27.0065 N   0  0  0  0  0  0  0  0  0  0  0  0
   -1.4423    2.0394   26.7209 C   0  0  0  0  0  0  0  0  0  0  0  0
   -2.1324    1.6422   25.8700 O   0  0  0  0  0  0  0  0  0  0  0  0
   -0.8550    1.0150   27.6598 C   0  0  0  0  0  0  0  0  0  0  0  0
   -1.4301   -0.2599   27.7246 C   0  0  0  0  0  0  0  0  0  0  0  0
   -0.8121   -1.3278   28.3932 C   0  0  0  0  0  0  0  0  0  0  0  0
    0.4359   -1.1555   28.9904 C   0  0  0  0  0  0  0  0  0  0  0  0
    1.2070   -2.3726   29.5576 C   0  0  0  0  0  0  0  0  0  0  0  0
    2.7479   -2.1650   29.4101 C   0  0  0  0  0  0  0  0  0  0  0  0
    3.4451   -1.4964   30.6141 C   0  0  0  0  0  0  0  0  0  0  0  0
    2.4835   -0.9907   31.6347 C   0  0  0  0  0  0  0  0  0  0  0  0
    2.5970    0.0603   32.4089 N   0  0  0  0  0  0  0  0  0  0  0  0
    1.3774    0.2711   33.0074 N   0  0  0  0  0  0  0  0  0  0  0  0
    0.5361   -0.6224   32.5450 C   0  0  0  0  0  0  0  0  0  0  0  0
   -0.7987   -0.6324   32.7284 N   0  0  0  0  0  0  0  0  0  0  0  0
    1.2219   -1.5225   31.7932 N   0  0  0  0  0  0  0  0  0  0  0  0
    0.8402   -2.7002   31.0388 C   0  0  0  0  0  0  0  0  0  0  0  0
   -0.6104   -3.2364   31.2125 C   0  0  0  0  0  0  0  0  0  0  0  0
   -0.6644   -3.8799   32.5910 C   0  0  0  0  0  0  0  0  0  0  0  0
    0.5041   -4.8510   32.6407 C   0  0  0  0  0  0  0  0  0  0  0  0
    0.0220   -6.1781   32.1854 C   0  0  0  0  0  0  0  0  0  0  0  0
    0.0359   -6.6787   30.8773 C   0  0  0  0  0  0  0  0  0  0  0  0
   -0.4966   -7.9126   30.5979 C   0  0  0  0  0  0  0  0  0  0  0  0
   -1.1543   -8.5802   31.6026 C   0  0  0  0  0  0  0  0  0  0  0  0
   -1.2862   -8.0352   32.8645 C   0  0  0  0  0  0  0  0  0  0  0  0
   -0.6529   -6.8695   33.1817 C   0  0  0  0  0  0  0  0  0  0  0  0
    1.8253   -4.1505   31.6971 S   0  0  0  0  0  0  0  0  0  0  0  0
    2.2474   -4.9908   30.5920 O   0  0  0  0  0  0  0  0  0  0  0  0
    2.8286   -3.7245   32.6550 O   0  0  0  0  0  0  0  0  0  0  0  0
    0.9781    0.1444   28.9709 C   0  0  0  0  0  0  0  0  0  0  0  0
    0.3550    1.2090   28.3127 C   0  0  0  0  0  0  0  0  0  0  0  0
   -2.0898    4.5787   25.7060 H   0  0  0  0  0  0  0  0  0  0  0  0
   -1.4107    5.4583   27.1331 H   0  0  0  0  0  0  0  0  0  0  0  0
   -0.3590    5.0019   25.7739 H   0  0  0  0  0  0  0  0  0  0  0  0
   -0.4158    3.4673   27.8744 H   0  0  0  0  0  0  0  0  0  0  0  0
   -2.3212   -0.4700   27.1460 H   0  0  0  0  0  0  0  0  0  0  0  0
   -1.2863   -2.3063   28.3367 H   0  0  0  0  0  0  0  0  0  0  0  0
    0.9520   -3.2300   28.9186 H   0  0  0  0  0  0  0  0  0  0  0  0
    3.2293   -3.1379   29.2516 H   0  0  0  0  0  0  0  0  0  0  0  0
    2.9846   -1.6141   28.4900 H   0  0  0  0  0  0  0  0  0  0  0  0
    4.1503   -2.1944   31.0775 H   0  0  0  0  0  0  0  0  0  0  0  0
    4.0540   -0.6595   30.2507 H   0  0  0  0  0  0  0  0  0  0  0  0
   -1.3282   -0.4593   31.8751 H   0  0  0  0  0  0  0  0  0  0  0  0
   -1.0695    0.0971   33.3882 H   0  0  0  0  0  0  0  0  0  0  0  0
   -1.3731   -2.4628   31.1043 H   0  0  0  0  0  0  0  0  0  0  0  0
   -0.8280   -3.9824   30.4395 H   0  0  0  0  0  0  0  0  0  0  0  0
   -1.6360   -4.3431   32.7665 H   0  0  0  0  0  0  0  0  0  0  0  0
   -0.5379   -3.1307   33.3784 H   0  0  0  0  0  0  0  0  0  0  0  0
    0.8802   -4.9249   33.6698 H   0  0  0  0  0  0  0  0  0  0  0  0
    0.4644   -6.1394   30.0416 H   0  0  0  0  0  0  0  0  0  0  0  0
   -0.4008   -8.3642   29.6177 H   0  0  0  0  0  0  0  0  0  0  0  0
   -1.5517   -9.5669   31.4214 H   0  0  0  0  0  0  0  0  0  0  0  0
   -1.8679   -8.5381   33.6282 H   0  0  0  0  0  0  0  0  0  0  0  0
   -0.7489   -6.4871   34.1976 H   0  0  0  0  0  0  0  0  0  0  0  0
    1.9470    0.3704   29.4087 H   0  0  0  0  0  0  0  0  0  0  0  0
    0.9108    2.1390   28.2555 H   0  0  0  0  0  0  0  0  0  0  0  0
  1  2  1  0
  2  3  1  0
  3  4  2  0
  3  5  1  0
  5  6  2  0
  6  7  1  0
  7  8  2  0
  8  9  1  0
  9 10  1  0
 10 11  1  0
 11 12  1  0
 12 13  2  0
 13 14  1  0
 14 15  2  0
 15 16  1  0
 15 17  1  0
 17 18  1  0
 18 19  1  0
 19 20  1  0
 20 21  1  0
 21 22  1  0
 22 23  2  0
 23 24  1  0
 24 25  2  0
 25 26  1  0
 26 27  2  0
 21 28  1  0
 28 29  2  0
 28 30  2  0
  8 31  1  0
 31 32  2  0
 32  5  1  0
 18  9  1  0
 27 22  1  0
 17 12  1  0
 28 18  1  0
  1 33  1  0
  1 34  1  0
  1 35  1  0
  2 36  1  0
  6 37  1  0
  7 38  1  0
  9 39  1  0
 10 40  1  0
 10 41  1  0
 11 42  1  0
 11 43  1  0
 16 44  1  0
 16 45  1  0
 19 46  1  0
 19 47  1  0
 20 48  1  0
 20 49  1  0
 21 50  1  0
 23 51  1  0
 24 52  1  0
 25 53  1  0
 26 54  1  0
 27 55  1  0
 31 56  1  0
 32 57  1  0
M  END
>  <Energy>  (106) 
81.611311614533435

>  <compound_id>  (106) 
3935

>  <target_id>  (106) 
1

>  <reference_id>  (106) 
136

>  <inspiration_ids>  (106) 
[136, 141]

>  <energy_score>  (106) 
-39.49516816700162

>  <distance_score>  (106) 
2.461637726500674

>  <path>  (106) 
/opt/xchem-fragalysis-2/maxwin/BulkDock/SCRATCH/505735/C3935-P136/C3935-P136.minimised.mol

>  <scratch_subdir>  (106) 
/opt/xchem-fragalysis-2/maxwin/BulkDock/SCRATCH/505735/C3935-P136

>  <fragmenstein_runtime>  (106) 
10.986077547073364

>  <fragmenstein_outcome>  (106) 
too moved

>  <fragmenstein_mode>  (106) 
expansion

>  <fragmenstein_error>  (106) 


$$$$
C3935-P141
     RDKit          3D

 57 61  0  0  0  0  0  0  0  0999 V2000
   -0.8846    4.8945   26.2684 C   0  0  0  0  0  0  0  0  0  0  0  0
   -0.6703    3.6265   26.9030 N   0  0  0  0  0  0  0  0  0  0  0  0
   -1.3263    2.2624   26.6514 C   0  0  0  0  0  0  0  0  0  0  0  0
   -2.0893    1.9311   25.8390 O   0  0  0  0  0  0  0  0  0  0  0  0
   -0.8312    1.2689   27.6323 C   0  0  0  0  0  0  0  0  0  0  0  0
   -1.6939    0.7563   28.5855 C   0  0  0  0  0  0  0  0  0  0  0  0
   -1.2255   -0.0928   29.5971 C   0  0  0  0  0  0  0  0  0  0  0  0
    0.1320   -0.4343   29.6548 C   0  0  0  0  0  0  0  0  0  0  0  0
    0.7818   -0.7967   30.9959 C   0  0  0  0  0  0  0  0  0  0  0  0
    2.2384   -0.1794   31.0489 C   0  0  0  0  0  0  0  0  0  0  0  0
    3.3207   -1.2503   30.9427 C   0  0  0  0  0  0  0  0  0  0  0  0
    3.1206   -2.0782   32.1417 C   0  0  0  0  0  0  0  0  0  0  0  0
    3.9971   -2.4711   33.0241 N   0  0  0  0  0  0  0  0  0  0  0  0
    3.3021   -2.8612   34.1373 N   0  0  0  0  0  0  0  0  0  0  0  0
    2.0272   -2.6391   33.9224 C   0  0  0  0  0  0  0  0  0  0  0  0
    1.0563   -2.7308   34.8478 N   0  0  0  0  0  0  0  0  0  0  0  0
    1.8501   -2.3101   32.6129 N   0  0  0  0  0  0  0  0  0  0  0  0
    0.6855   -2.1996   31.7185 C   0  0  0  0  0  0  0  0  0  0  0  0
   -0.6570   -2.4363   32.4663 C   0  0  0  0  0  0  0  0  0  0  0  0
   -0.7906   -3.9282   32.7977 C   0  0  0  0  0  0  0  0  0  0  0  0
    0.2735   -4.7166   32.0313 C   0  0  0  0  0  0  0  0  0  0  0  0
   -0.1505   -6.0843   31.6428 C   0  0  0  0  0  0  0  0  0  0  0  0
   -0.9796   -6.8118   32.5079 C   0  0  0  0  0  0  0  0  0  0  0  0
   -1.3573   -8.0950   32.2046 C   0  0  0  0  0  0  0  0  0  0  0  0
   -0.8617   -8.6770   31.0607 C   0  0  0  0  0  0  0  0  0  0  0  0
   -0.0114   -7.9893   30.2152 C   0  0  0  0  0  0  0  0  0  0  0  0
    0.3587   -6.6975   30.5085 C   0  0  0  0  0  0  0  0  0  0  0  0
    0.6495   -3.6488   30.6422 S   0  0  0  0  0  0  0  0  0  0  0  0
   -0.5108   -3.5764   29.7779 O   0  0  0  0  0  0  0  0  0  0  0  0
    1.9649   -3.9448   30.1128 O   0  0  0  0  0  0  0  0  0  0  0  0
    0.9386   -0.0590   28.5662 C   0  0  0  0  0  0  0  0  0  0  0  0
    0.4898    0.8657   27.6269 C   0  0  0  0  0  0  0  0  0  0  0  0
    0.0765    5.2714   25.9124 H   0  0  0  0  0  0  0  0  0  0  0  0
   -1.2982    5.5845   27.0067 H   0  0  0  0  0  0  0  0  0  0  0  0
   -1.5787    4.7747   25.4339 H   0  0  0  0  0  0  0  0  0  0  0  0
   -0.1153    3.5837   27.7495 H   0  0  0  0  0  0  0  0  0  0  0  0
   -2.7012    1.1431   28.5943 H   0  0  0  0  0  0  0  0  0  0  0  0
   -1.9104   -0.3604   30.3959 H   0  0  0  0  0  0  0  0  0  0  0  0
    0.2501   -0.1219   31.6907 H   0  0  0  0  0  0  0  0  0  0  0  0
    2.4205    0.6335   30.3395 H   0  0  0  0  0  0  0  0  0  0  0  0
    2.3418    0.3241   32.0250 H   0  0  0  0  0  0  0  0  0  0  0  0
    3.2494   -1.8190   30.0140 H   0  0  0  0  0  0  0  0  0  0  0  0
    4.3097   -0.7805   30.9708 H   0  0  0  0  0  0  0  0  0  0  0  0
    1.4371   -3.0384   35.7457 H   0  0  0  0  0  0  0  0  0  0  0  0
    0.5493   -1.8698   35.0399 H   0  0  0  0  0  0  0  0  0  0  0  0
   -0.7758   -1.8025   33.3496 H   0  0  0  0  0  0  0  0  0  0  0  0
   -1.4943   -2.1612   31.8117 H   0  0  0  0  0  0  0  0  0  0  0  0
   -0.7545   -4.1308   33.8712 H   0  0  0  0  0  0  0  0  0  0  0  0
   -1.7821   -4.2061   32.4656 H   0  0  0  0  0  0  0  0  0  0  0  0
    1.1903   -4.8234   32.6191 H   0  0  0  0  0  0  0  0  0  0  0  0
   -1.3316   -6.3885   33.4463 H   0  0  0  0  0  0  0  0  0  0  0  0
   -1.9995   -8.6454   32.8803 H   0  0  0  0  0  0  0  0  0  0  0  0
   -1.0841   -9.7190   30.8452 H   0  0  0  0  0  0  0  0  0  0  0  0
    0.4176   -8.5260   29.3746 H   0  0  0  0  0  0  0  0  0  0  0  0
    1.0684   -6.2148   29.8434 H   0  0  0  0  0  0  0  0  0  0  0  0
    1.9814   -0.3608   28.4948 H   0  0  0  0  0  0  0  0  0  0  0  0
    1.1914    1.2804   26.9129 H   0  0  0  0  0  0  0  0  0  0  0  0
  1  2  1  0
  2  3  1  0
  3  4  2  0
  3  5  1  0
  5  6  2  0
  6  7  1  0
  7  8  2  0
  8  9  1  0
  9 10  1  0
 10 11  1  0
 11 12  1  0
 12 13  2  0
 13 14  1  0
 14 15  2  0
 15 16  1  0
 15 17  1  0
 17 18  1  0
 18 19  1  0
 19 20  1  0
 20 21  1  0
 21 22  1  0
 22 23  2  0
 23 24  1  0
 24 25  2  0
 25 26  1  0
 26 27  2  0
 21 28  1  0
 28 29  2  0
 28 30  2  0
  8 31  1  0
 31 32  2  0
 32  5  1  0
 18  9  1  0
 27 22  1  0
 17 12  1  0
 28 18  1  0
  1 33  1  0
  1 34  1  0
  1 35  1  0
  2 36  1  0
  6 37  1  0
  7 38  1  0
  9 39  1  0
 10 40  1  0
 10 41  1  0
 11 42  1  0
 11 43  1  0
 16 44  1  0
 16 45  1  0
 19 46  1  0
 19 47  1  0
 20 48  1  0
 20 49  1  0
 21 50  1  0
 23 51  1  0
 24 52  1  0
 25 53  1  0
 26 54  1  0
 27 55  1  0
 31 56  1  0
 32 57  1  0
M  END
>  <Energy>  (107) 
101.72579518330919

>  <compound_id>  (107) 
3935

>  <target_id>  (107) 
1

>  <reference_id>  (107) 
141

>  <inspiration_ids>  (107) 
[136, 141]

>  <energy_score>  (107) 
-19.380684598223752

>  <distance_score>  (107) 
2.5644140499906674

>  <path>  (107) 
/opt/xchem-fragalysis-2/maxwin/BulkDock/SCRATCH/505735/C3935-P141/C3935-P141.minimised.mol

>  <scratch_subdir>  (107) 
/opt/xchem-fragalysis-2/maxwin/BulkDock/SCRATCH/505735/C3935-P141

>  <fragmenstein_runtime>  (107) 
11.363600254058838

>  <fragmenstein_outcome>  (107) 
too moved

>  <fragmenstein_mode>  (107) 
expansion

>  <fragmenstein_error>  (107) 


$$$$
C3935-P136
     RDKit          3D

 57 61  0  0  0  0  0  0  0  0999 V2000
   -1.3639    4.5093   25.6442 C   0  0  0  0  0  0  0  0  0  0  0  0
   -1.1423    3.4256   26.5573 N   0  0  0  0  0  0  0  0  0  0  0  0
   -2.0210    2.2090   26.8966 C   0  0  0  0  0  0  0  0  0  0  0  0
   -3.0966    1.9339   26.5463 O   0  0  0  0  0  0  0  0  0  0  0  0
   -1.2934    1.2375   27.7709 C   0  0  0  0  0  0  0  0  0  0  0  0
   -0.4067    1.6119   28.7723 C   0  0  0  0  0  0  0  0  0  0  0  0
    0.3398    0.6338   29.4526 C   0  0  0  0  0  0  0  0  0  0  0  0
    0.2298   -0.7380   29.1495 C   0  0  0  0  0  0  0  0  0  0  0  0
    1.2130   -1.8191   29.6672 C   0  0  0  0  0  0  0  0  0  0  0  0
    2.4651   -1.1926   30.3371 C   0  0  0  0  0  0  0  0  0  0  0  0
    2.2734   -0.8349   31.8159 C   0  0  0  0  0  0  0  0  0  0  0  0
    0.9521   -1.2493   32.3612 C   0  0  0  0  0  0  0  0  0  0  0  0
    0.2881   -0.6827   33.3423 N   0  0  0  0  0  0  0  0  0  0  0  0
   -0.8966   -1.3562   33.4827 N   0  0  0  0  0  0  0  0  0  0  0  0
   -0.9268   -2.3300   32.6040 C   0  0  0  0  0  0  0  0  0  0  0  0
   -1.8791   -3.2868   32.5296 N   0  0  0  0  0  0  0  0  0  0  0  0
    0.1883   -2.2680   31.8267 N   0  0  0  0  0  0  0  0  0  0  0  0
    0.6114   -2.9409   30.6133 C   0  0  0  0  0  0  0  0  0  0  0  0
   -0.3998   -3.8191   29.8488 C   0  0  0  0  0  0  0  0  0  0  0  0
   -0.4425   -5.2080   30.4280 C   0  0  0  0  0  0  0  0  0  0  0  0
    0.8974   -5.6277   30.9979 C   0  0  0  0  0  0  0  0  0  0  0  0
    0.5169   -6.2876   32.2920 C   0  0  0  0  0  0  0  0  0  0  0  0
   -0.2593   -7.4531   32.1143 C   0  0  0  0  0  0  0  0  0  0  0  0
   -1.1053   -7.8856   33.1058 C   0  0  0  0  0  0  0  0  0  0  0  0
   -1.0874   -7.2500   34.3321 C   0  0  0  0  0  0  0  0  0  0  0  0
   -0.2450   -6.1707   34.5601 C   0  0  0  0  0  0  0  0  0  0  0  0
    0.5499   -5.6772   33.5435 C   0  0  0  0  0  0  0  0  0  0  0  0
    1.9119   -4.1976   31.0141 S   0  0  0  0  0  0  0  0  0  0  0  0
    2.8011   -4.3418   29.8715 O   0  0  0  0  0  0  0  0  0  0  0  0
    2.4683   -3.9543   32.3267 O   0  0  0  0  0  0  0  0  0  0  0  0
   -0.7508   -1.0866   28.2188 C   0  0  0  0  0  0  0  0  0  0  0  0
   -1.4937   -0.1175   27.5399 C   0  0  0  0  0  0  0  0  0  0  0  0
   -1.2019    5.4507   26.1726 H   0  0  0  0  0  0  0  0  0  0  0  0
   -2.3806    4.4540   25.2501 H   0  0  0  0  0  0  0  0  0  0  0  0
   -0.6466    4.4203   24.8250 H   0  0  0  0  0  0  0  0  0  0  0  0
   -0.2283    3.3070   26.9706 H   0  0  0  0  0  0  0  0  0  0  0  0
   -0.2710    2.6588   29.0334 H   0  0  0  0  0  0  0  0  0  0  0  0
    1.0414    1.0015   30.1959 H   0  0  0  0  0  0  0  0  0  0  0  0
    1.5915   -2.3016   28.7533 H   0  0  0  0  0  0  0  0  0  0  0  0
    3.3054   -1.8944   30.2735 H   0  0  0  0  0  0  0  0  0  0  0  0
    2.8314   -0.3211   29.7797 H   0  0  0  0  0  0  0  0  0  0  0  0
    3.0718   -1.2880   32.4149 H   0  0  0  0  0  0  0  0  0  0  0  0
    2.3853    0.2484   31.9438 H   0  0  0  0  0  0  0  0  0  0  0  0
   -1.6040   -4.1154   33.0692 H   0  0  0  0  0  0  0  0  0  0  0  0
   -2.6754   -2.9863   33.1105 H   0  0  0  0  0  0  0  0  0  0  0  0
   -0.0650   -3.9308   28.8100 H   0  0  0  0  0  0  0  0  0  0  0  0
   -1.3989   -3.3740   29.8165 H   0  0  0  0  0  0  0  0  0  0  0  0
   -1.2379   -5.2317   31.1756 H   0  0  0  0  0  0  0  0  0  0  0  0
   -0.7130   -5.9324   29.6554 H   0  0  0  0  0  0  0  0  0  0  0  0
    1.3852   -6.3491   30.3351 H   0  0  0  0  0  0  0  0  0  0  0  0
   -0.3071   -7.9520   31.1468 H   0  0  0  0  0  0  0  0  0  0  0  0
   -1.7856   -8.7099   32.9301 H   0  0  0  0  0  0  0  0  0  0  0  0
   -1.7340   -7.6061   35.1338 H   0  0  0  0  0  0  0  0  0  0  0  0
   -0.2515   -5.6847   35.5346 H   0  0  0  0  0  0  0  0  0  0  0  0
    1.0965   -4.7715   33.7762 H   0  0  0  0  0  0  0  0  0  0  0  0
   -0.9207   -2.1139   27.9219 H   0  0  0  0  0  0  0  0  0  0  0  0
   -2.1819   -0.4371   26.7631 H   0  0  0  0  0  0  0  0  0  0  0  0
  1  2  1  0
  2  3  1  0
  3  4  2  0
  3  5  1  0
  5  6  2  0
  6  7  1  0
  7  8  2  0
  8  9  1  0
  9 10  1  0
 10 11  1  0
 11 12  1  0
 12 13  2  0
 13 14  1  0
 14 15  2  0
 15 16  1  0
 15 17  1  0
 17 18  1  0
 18 19  1  0
 19 20  1  0
 20 21  1  0
 21 22  1  0
 22 23  2  0
 23 24  1  0
 24 25  2  0
 25 26  1  0
 26 27  2  0
 21 28  1  0
 28 29  2  0
 28 30  2  0
  8 31  1  0
 31 32  2  0
 32  5  1  0
 18  9  1  0
 27 22  1  0
 17 12  1  0
 28 18  1  0
  1 33  1  0
  1 34  1  0
  1 35  1  0
  2 36  1  0
  6 37  1  0
  7 38  1  0
  9 39  1  0
 10 40  1  0
 10 41  1  0
 11 42  1  0
 11 43  1  0
 16 44  1  0
 16 45  1  0
 19 46  1  0
 19 47  1  0
 20 48  1  0
 20 49  1  0
 21 50  1  0
 23 51  1  0
 24 52  1  0
 25 53  1  0
 26 54  1  0
 27 55  1  0
 31 56  1  0
 32 57  1  0
M  END
>  <Energy>  (108) 
86.851082606341251

>  <compound_id>  (108) 
3935

>  <target_id>  (108) 
1

>  <reference_id>  (108) 
136

>  <inspiration_ids>  (108) 
[136, 142]

>  <energy_score>  (108) 
-44.545306550541625

>  <distance_score>  (108) 
2.3741597437294275

>  <path>  (108) 
/opt/xchem-fragalysis-2/maxwin/BulkDock/SCRATCH/505735/C3935-P136/C3935-P136.minimised.mol

>  <scratch_subdir>  (108) 
/opt/xchem-fragalysis-2/maxwin/BulkDock/SCRATCH/505735/C3935-P136

>  <fragmenstein_runtime>  (108) 
14.727579116821289

>  <fragmenstein_outcome>  (108) 
too moved

>  <fragmenstein_mode>  (108) 
expansion

>  <fragmenstein_error>  (108) 


$$$$
C3935-P142
     RDKit          3D

 57 61  0  0  0  0  0  0  0  0999 V2000
   -2.8213    3.4668   25.3027 C   0  0  0  0  0  0  0  0  0  0  0  0
   -2.4284    2.5740   26.3526 N   0  0  0  0  0  0  0  0  0  0  0  0
   -1.0961    2.4464   27.1085 C   0  0  0  0  0  0  0  0  0  0  0  0
   -0.1309    3.0960   27.0523 O   0  0  0  0  0  0  0  0  0  0  0  0
   -1.0483    1.2197   27.9697 C   0  0  0  0  0  0  0  0  0  0  0  0
   -0.1803    1.1971   29.0652 C   0  0  0  0  0  0  0  0  0  0  0  0
    0.1607   -0.0139   29.6892 C   0  0  0  0  0  0  0  0  0  0  0  0
   -0.3600   -1.2263   29.2190 C   0  0  0  0  0  0  0  0  0  0  0  0
    0.3355   -2.5811   29.4052 C   0  0  0  0  0  0  0  0  0  0  0  0
    1.6710   -2.4803   28.5563 C   0  0  0  0  0  0  0  0  0  0  0  0
    3.0091   -2.5304   29.3176 C   0  0  0  0  0  0  0  0  0  0  0  0
    2.8576   -2.2207   30.7473 C   0  0  0  0  0  0  0  0  0  0  0  0
    3.7076   -1.6094   31.5323 N   0  0  0  0  0  0  0  0  0  0  0  0
    3.0063   -1.2166   32.6374 N   0  0  0  0  0  0  0  0  0  0  0  0
    1.7599   -1.6103   32.4990 C   0  0  0  0  0  0  0  0  0  0  0  0
    0.7300   -1.1664   33.2334 N   0  0  0  0  0  0  0  0  0  0  0  0
    1.6859   -2.4590   31.4284 N   0  0  0  0  0  0  0  0  0  0  0  0
    0.6273   -3.2453   30.7906 C   0  0  0  0  0  0  0  0  0  0  0  0
    1.1749   -4.7292   30.4501 C   0  0  0  0  0  0  0  0  0  0  0  0
    0.0543   -5.7416   30.5437 C   0  0  0  0  0  0  0  0  0  0  0  0
   -0.7051   -5.3894   31.7851 C   0  0  0  0  0  0  0  0  0  0  0  0
   -0.0354   -5.9475   32.9979 C   0  0  0  0  0  0  0  0  0  0  0  0
    1.2280   -5.5596   33.4526 C   0  0  0  0  0  0  0  0  0  0  0  0
    1.8524   -6.2319   34.4818 C   0  0  0  0  0  0  0  0  0  0  0  0
    1.1797   -7.2408   35.1310 C   0  0  0  0  0  0  0  0  0  0  0  0
   -0.1095   -7.5681   34.7508 C   0  0  0  0  0  0  0  0  0  0  0  0
   -0.7012   -6.9609   33.6662 C   0  0  0  0  0  0  0  0  0  0  0  0
   -0.8351   -3.6251   31.8194 S   0  0  0  0  0  0  0  0  0  0  0  0
   -2.0528   -3.2913   31.1056 O   0  0  0  0  0  0  0  0  0  0  0  0
   -0.6727   -3.2157   33.1986 O   0  0  0  0  0  0  0  0  0  0  0  0
   -1.3504   -1.1647   28.2236 C   0  0  0  0  0  0  0  0  0  0  0  0
   -1.6640    0.0336   27.5791 C   0  0  0  0  0  0  0  0  0  0  0  0
   -3.9084    3.5411   25.2845 H   0  0  0  0  0  0  0  0  0  0  0  0
   -2.4613    3.0574   24.3559 H   0  0  0  0  0  0  0  0  0  0  0  0
   -2.3551    4.4404   25.4640 H   0  0  0  0  0  0  0  0  0  0  0  0
   -3.0832    1.8887   26.7049 H   0  0  0  0  0  0  0  0  0  0  0  0
    0.3276    2.1123   29.3689 H   0  0  0  0  0  0  0  0  0  0  0  0
    0.9445    0.0250   30.4405 H   0  0  0  0  0  0  0  0  0  0  0  0
   -0.3047   -3.3013   28.8734 H   0  0  0  0  0  0  0  0  0  0  0  0
    1.6836   -3.3121   27.8416 H   0  0  0  0  0  0  0  0  0  0  0  0
    1.6753   -1.5844   27.9214 H   0  0  0  0  0  0  0  0  0  0  0  0
    3.4672   -3.5205   29.2099 H   0  0  0  0  0  0  0  0  0  0  0  0
    3.7096   -1.8253   28.8544 H   0  0  0  0  0  0  0  0  0  0  0  0
    1.0216   -0.6187   34.0406 H   0  0  0  0  0  0  0  0  0  0  0  0
    0.0351   -1.8540   33.5494 H   0  0  0  0  0  0  0  0  0  0  0  0
    2.0196   -5.0024   31.0857 H   0  0  0  0  0  0  0  0  0  0  0  0
    1.5845   -4.8092   29.4396 H   0  0  0  0  0  0  0  0  0  0  0  0
   -0.5845   -5.6174   29.6687 H   0  0  0  0  0  0  0  0  0  0  0  0
    0.4269   -6.7709   30.5328 H   0  0  0  0  0  0  0  0  0  0  0  0
   -1.7083   -5.7957   31.7153 H   0  0  0  0  0  0  0  0  0  0  0  0
    1.7676   -4.7074   33.0593 H   0  0  0  0  0  0  0  0  0  0  0  0
    2.8366   -5.9214   34.8248 H   0  0  0  0  0  0  0  0  0  0  0  0
    1.6326   -7.7360   35.9862 H   0  0  0  0  0  0  0  0  0  0  0  0
   -0.6614   -8.3182   35.3101 H   0  0  0  0  0  0  0  0  0  0  0  0
   -1.6925   -7.2939   33.3740 H   0  0  0  0  0  0  0  0  0  0  0  0
   -1.7890   -2.0745   27.8191 H   0  0  0  0  0  0  0  0  0  0  0  0
   -2.2934   -0.0228   26.6958 H   0  0  0  0  0  0  0  0  0  0  0  0
  1  2  1  0
  2  3  1  0
  3  4  2  0
  3  5  1  0
  5  6  2  0
  6  7  1  0
  7  8  2  0
  8  9  1  0
  9 10  1  0
 10 11  1  0
 11 12  1  0
 12 13  2  0
 13 14  1  0
 14 15  2  0
 15 16  1  0
 15 17  1  0
 17 18  1  0
 18 19  1  0
 19 20  1  0
 20 21  1  0
 21 22  1  0
 22 23  2  0
 23 24  1  0
 24 25  2  0
 25 26  1  0
 26 27  2  0
 21 28  1  0
 28 29  2  0
 28 30  2  0
  8 31  1  0
 31 32  2  0
 32  5  1  0
 18  9  1  0
 27 22  1  0
 17 12  1  0
 28 18  1  0
  1 33  1  0
  1 34  1  0
  1 35  1  0
  2 36  1  0
  6 37  1  0
  7 38  1  0
  9 39  1  0
 10 40  1  0
 10 41  1  0
 11 42  1  0
 11 43  1  0
 16 44  1  0
 16 45  1  0
 19 46  1  0
 19 47  1  0
 20 48  1  0
 20 49  1  0
 21 50  1  0
 23 51  1  0
 24 52  1  0
 25 53  1  0
 26 54  1  0
 27 55  1  0
 31 56  1  0
 32 57  1  0
M  END
>  <Energy>  (109) 
93.051498386881391

>  <compound_id>  (109) 
3935

>  <target_id>  (109) 
1

>  <reference_id>  (109) 
142

>  <inspiration_ids>  (109) 
[136, 142]

>  <energy_score>  (109) 
-38.34489076999927

>  <distance_score>  (109) 
2.903087721716385

>  <path>  (109) 
/opt/xchem-fragalysis-2/maxwin/BulkDock/SCRATCH/505735/C3935-P142/C3935-P142.minimised.mol

>  <scratch_subdir>  (109) 
/opt/xchem-fragalysis-2/maxwin/BulkDock/SCRATCH/505735/C3935-P142

>  <fragmenstein_runtime>  (109) 
12.063282012939453

>  <fragmenstein_outcome>  (109) 
too moved

>  <fragmenstein_mode>  (109) 
expansion

>  <fragmenstein_error>  (109) 


$$$$
C3936-P136
     RDKit          3D

 54 58  0  0  0  0  0  0  0  0999 V2000
    5.7490    2.5020   34.5058 C   0  0  0  0  0  0  0  0  0  0  0  0
    4.8924    1.4459   34.0499 N   0  0  0  0  0  0  0  0  0  0  0  0
    4.6088    0.9726   32.7334 C   0  0  0  0  0  0  0  0  0  0  0  0
    4.9509    1.3841   31.6651 O   0  0  0  0  0  0  0  0  0  0  0  0
    3.7125   -0.2230   32.7314 C   0  0  0  0  0  0  0  0  0  0  0  0
    3.9274   -1.2962   33.6026 C   0  0  0  0  0  0  0  0  0  0  0  0
    3.0723   -2.4014   33.5709 C   0  0  0  0  0  0  0  0  0  0  0  0
    2.0002   -2.4558   32.6661 C   0  0  0  0  0  0  0  0  0  0  0  0
    1.0710   -3.6002   32.6251 C   0  0  0  0  0  0  0  0  0  0  0  0
    1.4697   -4.8781   32.8461 C   0  0  0  0  0  0  0  0  0  0  0  0
    0.4983   -5.8811   32.7720 N   0  0  0  0  0  0  0  0  0  0  0  0
    0.3787   -7.1114   33.3691 C   0  0  0  0  0  0  0  0  0  0  0  0
    1.1363   -7.4683   34.4389 N   0  0  0  0  0  0  0  0  0  0  0  0
   -0.6510   -7.7438   32.8437 N   0  0  0  0  0  0  0  0  0  0  0  0
   -1.3261   -6.8652   32.0176 N   0  0  0  0  0  0  0  0  0  0  0  0
   -0.7064   -5.7112   32.1054 C   0  0  0  0  0  0  0  0  0  0  0  0
   -0.9674   -4.3649   31.6606 C   0  0  0  0  0  0  0  0  0  0  0  0
   -0.4178   -3.4651   32.5249 C   0  0  0  0  0  0  0  0  0  0  0  0
   -1.1032   -3.1578   33.7155 N   0  0  0  0  0  0  0  0  0  0  0  0
   -0.5373   -2.8305   35.0261 C   0  0  0  0  0  0  0  0  0  0  0  0
    0.1058   -3.9422   35.8080 C   0  0  0  0  0  0  0  0  0  0  0  0
    1.3104   -4.4461   35.6299 N   0  0  0  0  0  0  0  0  0  0  0  0
    1.5280   -5.4138   36.5650 N   0  0  0  0  0  0  0  0  0  0  0  0
    0.4921   -5.4408   37.3814 C   0  0  0  0  0  0  0  0  0  0  0  0
    0.3855   -6.2551   38.5882 C   0  0  0  0  0  0  0  0  0  0  0  0
   -0.4530   -5.9085   39.6544 C   0  0  0  0  0  0  0  0  0  0  0  0
   -0.4876   -6.6923   40.8131 C   0  0  0  0  0  0  0  0  0  0  0  0
    0.3085   -7.8308   40.9167 C   0  0  0  0  0  0  0  0  0  0  0  0
    1.1480   -8.1845   39.8659 C   0  0  0  0  0  0  0  0  0  0  0  0
    1.1886   -7.3998   38.7123 C   0  0  0  0  0  0  0  0  0  0  0  0
   -0.4538   -4.5650   36.8965 N   0  0  0  0  0  0  0  0  0  0  0  0
    1.8040   -1.3793   31.7891 C   0  0  0  0  0  0  0  0  0  0  0  0
    2.6583   -0.2733   31.8148 C   0  0  0  0  0  0  0  0  0  0  0  0
    6.2384    2.9778   33.6530 H   0  0  0  0  0  0  0  0  0  0  0  0
    6.4964    2.0761   35.1788 H   0  0  0  0  0  0  0  0  0  0  0  0
    5.1421    3.2319   35.0463 H   0  0  0  0  0  0  0  0  0  0  0  0
    4.3650    0.8977   34.7183 H   0  0  0  0  0  0  0  0  0  0  0  0
    4.7675   -1.2965   34.2922 H   0  0  0  0  0  0  0  0  0  0  0  0
    3.2504   -3.2152   34.2714 H   0  0  0  0  0  0  0  0  0  0  0  0
    2.4680   -5.1814   33.1290 H   0  0  0  0  0  0  0  0  0  0  0  0
    0.6148   -8.0898   35.0630 H   0  0  0  0  0  0  0  0  0  0  0  0
    1.4655   -6.6757   35.0102 H   0  0  0  0  0  0  0  0  0  0  0  0
   -0.6429   -4.2959   30.6186 H   0  0  0  0  0  0  0  0  0  0  0  0
   -2.0135   -3.6270   33.7944 H   0  0  0  0  0  0  0  0  0  0  0  0
    0.1855   -2.0135   34.9178 H   0  0  0  0  0  0  0  0  0  0  0  0
   -1.3511   -2.4118   35.6316 H   0  0  0  0  0  0  0  0  0  0  0  0
   -1.0836   -5.0245   39.6162 H   0  0  0  0  0  0  0  0  0  0  0  0
   -1.1447   -6.4146   41.6340 H   0  0  0  0  0  0  0  0  0  0  0  0
    0.2699   -8.4448   41.8124 H   0  0  0  0  0  0  0  0  0  0  0  0
    1.7613   -9.0787   39.9326 H   0  0  0  0  0  0  0  0  0  0  0  0
    1.8502   -7.6970   37.9011 H   0  0  0  0  0  0  0  0  0  0  0  0
   -1.3684   -4.3970   37.2873 H   0  0  0  0  0  0  0  0  0  0  0  0
    0.9874   -1.3915   31.0692 H   0  0  0  0  0  0  0  0  0  0  0  0
    2.5005    0.5481   31.1186 H   0  0  0  0  0  0  0  0  0  0  0  0
  1  2  1  0
  2  3  1  0
  3  4  2  0
  3  5  1  0
  5  6  2  0
  6  7  1  0
  7  8  2  0
  8  9  1  0
  9 10  2  0
 10 11  1  0
 11 12  1  0
 12 13  1  0
 12 14  2  0
 14 15  1  0
 15 16  2  0
 16 17  1  0
 17 18  2  0
 18 19  1  0
 19 20  1  0
 20 21  1  0
 21 22  2  0
 22 23  1  0
 23 24  2  0
 24 25  1  0
 25 26  2  0
 26 27  1  0
 27 28  2  0
 28 29  1  0
 29 30  2  0
 24 31  1  0
  8 32  1  0
 32 33  2  0
 33  5  1  0
 18  9  1  0
 31 21  1  0
 16 11  1  0
 30 25  1  0
  1 34  1  0
  1 35  1  0
  1 36  1  0
  2 37  1  0
  6 38  1  0
  7 39  1  0
 10 40  1  0
 13 41  1  0
 13 42  1  0
 17 43  1  0
 19 44  1  0
 20 45  1  0
 20 46  1  0
 26 47  1  0
 27 48  1  0
 28 49  1  0
 29 50  1  0
 30 51  1  0
 31 52  1  0
 32 53  1  0
 33 54  1  0
M  END
>  <Energy>  (110) 
121.88783349176103

>  <compound_id>  (110) 
3936

>  <target_id>  (110) 
1

>  <reference_id>  (110) 
136

>  <inspiration_ids>  (110) 
[136, 144]

>  <energy_score>  (110) 
17.387821007916642

>  <distance_score>  (110) 
1.9063906418767451

>  <path>  (110) 
/opt/xchem-fragalysis-2/maxwin/BulkDock/SCRATCH/505735/C3936-P136/C3936-P136.minimised.mol

>  <scratch_subdir>  (110) 
/opt/xchem-fragalysis-2/maxwin/BulkDock/SCRATCH/505735/C3936-P136

>  <fragmenstein_runtime>  (110) 
5.743993282318115

>  <fragmenstein_outcome>  (110) 
too moved

>  <fragmenstein_mode>  (110) 
expansion

>  <fragmenstein_error>  (110) 


$$$$
C3936-P144
     RDKit          3D

 54 58  0  0  0  0  0  0  0  0999 V2000
    6.1020    1.6264   32.9199 C   0  0  0  0  0  0  0  0  0  0  0  0
    5.3577    0.4018   32.9441 N   0  0  0  0  0  0  0  0  0  0  0  0
    5.8358   -1.0565   33.0566 C   0  0  0  0  0  0  0  0  0  0  0  0
    6.9036   -1.4900   33.2245 O   0  0  0  0  0  0  0  0  0  0  0  0
    4.6878   -2.0037   32.9497 C   0  0  0  0  0  0  0  0  0  0  0  0
    4.6208   -3.0836   33.8343 C   0  0  0  0  0  0  0  0  0  0  0  0
    3.5698   -4.0022   33.7581 C   0  0  0  0  0  0  0  0  0  0  0  0
    2.5546   -3.8371   32.8178 C   0  0  0  0  0  0  0  0  0  0  0  0
    1.3097   -4.6474   32.8067 C   0  0  0  0  0  0  0  0  0  0  0  0
    1.1156   -5.8999   33.2813 C   0  0  0  0  0  0  0  0  0  0  0  0
   -0.0703   -6.5440   32.9137 N   0  0  0  0  0  0  0  0  0  0  0  0
   -0.7907   -7.6238   33.3805 C   0  0  0  0  0  0  0  0  0  0  0  0
   -0.7584   -8.0413   34.6607 N   0  0  0  0  0  0  0  0  0  0  0  0
   -1.5658   -8.0498   32.4032 N   0  0  0  0  0  0  0  0  0  0  0  0
   -1.5860   -7.0770   31.4231 N   0  0  0  0  0  0  0  0  0  0  0  0
   -0.8520   -6.0799   31.8682 C   0  0  0  0  0  0  0  0  0  0  0  0
   -0.8484   -4.6652   31.6976 C   0  0  0  0  0  0  0  0  0  0  0  0
    0.0447   -3.9828   32.4382 C   0  0  0  0  0  0  0  0  0  0  0  0
   -0.2672   -2.8148   33.1607 N   0  0  0  0  0  0  0  0  0  0  0  0
   -0.7186   -2.9409   34.6004 C   0  0  0  0  0  0  0  0  0  0  0  0
    0.0945   -3.8029   35.5444 C   0  0  0  0  0  0  0  0  0  0  0  0
    1.4029   -3.7720   35.6498 N   0  0  0  0  0  0  0  0  0  0  0  0
    1.8113   -4.7859   36.4638 N   0  0  0  0  0  0  0  0  0  0  0  0
    0.7518   -5.3305   37.0191 C   0  0  0  0  0  0  0  0  0  0  0  0
    0.8285   -6.3377   38.0800 C   0  0  0  0  0  0  0  0  0  0  0  0
   -0.1424   -6.4595   39.0749 C   0  0  0  0  0  0  0  0  0  0  0  0
    0.0310   -7.3669   40.1299 C   0  0  0  0  0  0  0  0  0  0  0  0
    1.1708   -8.1654   40.2015 C   0  0  0  0  0  0  0  0  0  0  0  0
    2.1523   -8.0508   39.2246 C   0  0  0  0  0  0  0  0  0  0  0  0
    1.9830   -7.1405   38.1772 C   0  0  0  0  0  0  0  0  0  0  0  0
   -0.3657   -4.7607   36.4296 N   0  0  0  0  0  0  0  0  0  0  0  0
    2.6694   -2.7770   31.8887 C   0  0  0  0  0  0  0  0  0  0  0  0
    3.7147   -1.8565   31.9603 C   0  0  0  0  0  0  0  0  0  0  0  0
    5.8876    2.1446   31.9827 H   0  0  0  0  0  0  0  0  0  0  0  0
    7.1694    1.4083   32.9944 H   0  0  0  0  0  0  0  0  0  0  0  0
    5.7835    2.2432   33.7629 H   0  0  0  0  0  0  0  0  0  0  0  0
    4.3471    0.4223   32.8812 H   0  0  0  0  0  0  0  0  0  0  0  0
    5.3881   -3.2100   34.5961 H   0  0  0  0  0  0  0  0  0  0  0  0
    3.5320   -4.8019   34.4928 H   0  0  0  0  0  0  0  0  0  0  0  0
    1.8350   -6.4554   33.8613 H   0  0  0  0  0  0  0  0  0  0  0  0
   -1.2000   -8.9549   34.8629 H   0  0  0  0  0  0  0  0  0  0  0  0
    0.0074   -7.8415   35.2927 H   0  0  0  0  0  0  0  0  0  0  0  0
   -1.7480   -4.1648   31.3785 H   0  0  0  0  0  0  0  0  0  0  0  0
    0.5863   -2.2557   33.2319 H   0  0  0  0  0  0  0  0  0  0  0  0
   -0.7084   -1.9236   35.0123 H   0  0  0  0  0  0  0  0  0  0  0  0
   -1.7583   -3.2377   34.6050 H   0  0  0  0  0  0  0  0  0  0  0  0
   -1.0288   -5.8302   39.0755 H   0  0  0  0  0  0  0  0  0  0  0  0
   -0.7282   -7.4425   40.9053 H   0  0  0  0  0  0  0  0  0  0  0  0
    1.2912   -8.8695   41.0198 H   0  0  0  0  0  0  0  0  0  0  0  0
    3.0504   -8.6590   39.2775 H   0  0  0  0  0  0  0  0  0  0  0  0
    2.7767   -7.0407   37.4387 H   0  0  0  0  0  0  0  0  0  0  0  0
   -1.3268   -5.0280   36.5811 H   0  0  0  0  0  0  0  0  0  0  0  0
    1.9237   -2.6414   31.1056 H   0  0  0  0  0  0  0  0  0  0  0  0
    3.7790   -1.0596   31.2246 H   0  0  0  0  0  0  0  0  0  0  0  0
  1  2  1  0
  2  3  1  0
  3  4  2  0
  3  5  1  0
  5  6  2  0
  6  7  1  0
  7  8  2  0
  8  9  1  0
  9 10  2  0
 10 11  1  0
 11 12  1  0
 12 13  1  0
 12 14  2  0
 14 15  1  0
 15 16  2  0
 16 17  1  0
 17 18  2  0
 18 19  1  0
 19 20  1  0
 20 21  1  0
 21 22  2  0
 22 23  1  0
 23 24  2  0
 24 25  1  0
 25 26  2  0
 26 27  1  0
 27 28  2  0
 28 29  1  0
 29 30  2  0
 24 31  1  0
  8 32  1  0
 32 33  2  0
 33  5  1  0
 18  9  1  0
 31 21  1  0
 16 11  1  0
 30 25  1  0
  1 34  1  0
  1 35  1  0
  1 36  1  0
  2 37  1  0
  6 38  1  0
  7 39  1  0
 10 40  1  0
 13 41  1  0
 13 42  1  0
 17 43  1  0
 19 44  1  0
 20 45  1  0
 20 46  1  0
 26 47  1  0
 27 48  1  0
 28 49  1  0
 29 50  1  0
 30 51  1  0
 31 52  1  0
 32 53  1  0
 33 54  1  0
M  END
>  <Energy>  (111) 
125.08028359798274

>  <compound_id>  (111) 
3936

>  <target_id>  (111) 
1

>  <reference_id>  (111) 
144

>  <inspiration_ids>  (111) 
[136, 144]

>  <energy_score>  (111) 
16.461708378266735

>  <distance_score>  (111) 
1.9090370122665816

>  <path>  (111) 
/opt/xchem-fragalysis-2/maxwin/BulkDock/SCRATCH/505735/C3936-P144/C3936-P144.minimised.mol

>  <scratch_subdir>  (111) 
/opt/xchem-fragalysis-2/maxwin/BulkDock/SCRATCH/505735/C3936-P144

>  <fragmenstein_runtime>  (111) 
3.918710708618164

>  <fragmenstein_outcome>  (111) 
too moved

>  <fragmenstein_mode>  (111) 
expansion

>  <fragmenstein_error>  (111) 


$$$$
C3937-P136
     RDKit          3D

 47 51  0  0  0  0  0  0  0  0999 V2000
    2.4797    2.7259   35.0131 C   0  0  0  0  0  0  0  0  0  0  0  0
    2.3042    1.4087   34.4761 N   0  0  0  0  0  0  0  0  0  0  0  0
    3.3408    0.3306   34.1135 C   0  0  0  0  0  0  0  0  0  0  0  0
    4.5048    0.3696   34.1214 O   0  0  0  0  0  0  0  0  0  0  0  0
    2.6765   -0.9269   33.6628 C   0  0  0  0  0  0  0  0  0  0  0  0
    3.1603   -2.1467   34.1485 C   0  0  0  0  0  0  0  0  0  0  0  0
    2.5735   -3.3450   33.7381 C   0  0  0  0  0  0  0  0  0  0  0  0
    1.4929   -3.3293   32.8464 C   0  0  0  0  0  0  0  0  0  0  0  0
    0.8839   -4.5929   32.3755 C   0  0  0  0  0  0  0  0  0  0  0  0
    1.1960   -5.0427   31.0193 C   0  0  0  0  0  0  0  0  0  0  0  0
    0.6414   -6.1367   30.4852 C   0  0  0  0  0  0  0  0  0  0  0  0
   -0.2710   -6.9030   31.2397 C   0  0  0  0  0  0  0  0  0  0  0  0
   -1.0042   -7.9404   30.9108 N   0  0  0  0  0  0  0  0  0  0  0  0
   -1.6417   -8.3592   32.0418 N   0  0  0  0  0  0  0  0  0  0  0  0
   -1.2796   -7.5881   33.0456 C   0  0  0  0  0  0  0  0  0  0  0  0
   -1.5852   -7.8113   34.3499 N   0  0  0  0  0  0  0  0  0  0  0  0
   -0.4862   -6.5448   32.5702 N   0  0  0  0  0  0  0  0  0  0  0  0
    0.0579   -5.3631   33.1410 C   0  0  0  0  0  0  0  0  0  0  0  0
   -0.4076   -4.8671   34.7498 S   0  0  0  0  0  0  0  0  0  0  0  0
    0.6374   -5.9009   35.6525 C   0  0  0  0  0  0  0  0  0  0  0  0
    1.3863   -6.8512   35.1249 N   0  0  0  0  0  0  0  0  0  0  0  0
    1.9817   -7.5056   36.1657 N   0  0  0  0  0  0  0  0  0  0  0  0
    1.5166   -6.9524   37.2711 C   0  0  0  0  0  0  0  0  0  0  0  0
    1.8346   -7.4269   38.5686 C   0  0  0  0  0  0  0  0  0  0  0  0
    1.2353   -7.1741   39.7836 C   0  0  0  0  0  0  0  0  0  0  0  0
    1.9099   -7.9543   40.7548 C   0  0  0  0  0  0  0  0  0  0  0  0
    2.9159   -8.6409   40.1096 C   0  0  0  0  0  0  0  0  0  0  0  0
    2.8559   -8.3174   38.7811 N   0  0  0  0  0  0  0  0  0  0  0  0
    0.6722   -5.9061   37.0165 O   0  0  0  0  0  0  0  0  0  0  0  0
    1.0325   -2.1068   32.3373 C   0  0  0  0  0  0  0  0  0  0  0  0
    1.6264   -0.9078   32.7382 C   0  0  0  0  0  0  0  0  0  0  0  0
    2.0593    3.4470   34.3087 H   0  0  0  0  0  0  0  0  0  0  0  0
    3.5434    2.9221   35.1634 H   0  0  0  0  0  0  0  0  0  0  0  0
    1.9470    2.7871   35.9645 H   0  0  0  0  0  0  0  0  0  0  0  0
    1.3735    1.0630   34.2773 H   0  0  0  0  0  0  0  0  0  0  0  0
    4.0010   -2.1615   34.8393 H   0  0  0  0  0  0  0  0  0  0  0  0
    2.9725   -4.2855   34.1118 H   0  0  0  0  0  0  0  0  0  0  0  0
    1.9119   -4.4623   30.4409 H   0  0  0  0  0  0  0  0  0  0  0  0
    0.9164   -6.4598   29.4945 H   0  0  0  0  0  0  0  0  0  0  0  0
   -1.8992   -8.7856   34.4897 H   0  0  0  0  0  0  0  0  0  0  0  0
   -0.8089   -7.7321   35.0002 H   0  0  0  0  0  0  0  0  0  0  0  0
    0.3879   -6.5209   39.9523 H   0  0  0  0  0  0  0  0  0  0  0  0
    1.6869   -8.0058   41.8130 H   0  0  0  0  0  0  0  0  0  0  0  0
    3.6560   -9.3371   40.4806 H   0  0  0  0  0  0  0  0  0  0  0  0
    3.4505   -8.6930   38.0540 H   0  0  0  0  0  0  0  0  0  0  0  0
    0.2157   -2.0809   31.6178 H   0  0  0  0  0  0  0  0  0  0  0  0
    1.2799    0.0268   32.3045 H   0  0  0  0  0  0  0  0  0  0  0  0
  1  2  1  0
  2  3  1  0
  3  4  2  0
  3  5  1  0
  5  6  2  0
  6  7  1  0
  7  8  2  0
  8  9  1  0
  9 10  1  0
 10 11  2  0
 11 12  1  0
 12 13  2  0
 13 14  1  0
 14 15  2  0
 15 16  1  0
 15 17  1  0
 17 18  1  0
 18 19  1  0
 19 20  1  0
 20 21  2  0
 21 22  1  0
 22 23  2  0
 23 24  1  0
 24 25  2  0
 25 26  1  0
 26 27  2  0
 27 28  1  0
 23 29  1  0
  8 30  1  0
 30 31  2  0
 31  5  1  0
 18  9  2  0
 29 20  1  0
 17 12  1  0
 28 24  1  0
  1 32  1  0
  1 33  1  0
  1 34  1  0
  2 35  1  0
  6 36  1  0
  7 37  1  0
 10 38  1  0
 11 39  1  0
 16 40  1  0
 16 41  1  0
 25 42  1  0
 26 43  1  0
 27 44  1  0
 28 45  1  0
 30 46  1  0
 31 47  1  0
M  END
>  <Energy>  (112) 
74.112420405403284

>  <compound_id>  (112) 
3937

>  <target_id>  (112) 
1

>  <reference_id>  (112) 
136

>  <inspiration_ids>  (112) 
[136, 145]

>  <energy_score>  (112) 
-43.668739125478595

>  <distance_score>  (112) 
0.968006209810816

>  <path>  (112) 
/opt/xchem-fragalysis-2/maxwin/BulkDock/SCRATCH/505735/C3937-P136/C3937-P136.minimised.mol

>  <scratch_subdir>  (112) 
/opt/xchem-fragalysis-2/maxwin/BulkDock/SCRATCH/505735/C3937-P136

>  <fragmenstein_runtime>  (112) 
4.489548206329346

>  <fragmenstein_outcome>  (112) 
acceptable

>  <fragmenstein_mode>  (112) 
expansion

>  <fragmenstein_error>  (112) 


$$$$
C3937-P145
     RDKit          3D

 47 51  0  0  0  0  0  0  0  0999 V2000
    2.9937    3.0405   34.0245 C   0  0  0  0  0  0  0  0  0  0  0  0
    2.6873    1.6735   33.7188 N   0  0  0  0  0  0  0  0  0  0  0  0
    3.5170    0.3936   33.9221 C   0  0  0  0  0  0  0  0  0  0  0  0
    4.6101    0.2545   34.2988 O   0  0  0  0  0  0  0  0  0  0  0  0
    2.7374   -0.8211   33.5480 C   0  0  0  0  0  0  0  0  0  0  0  0
    1.4276   -1.0183   33.9802 C   0  0  0  0  0  0  0  0  0  0  0  0
    0.7255   -2.1677   33.5975 C   0  0  0  0  0  0  0  0  0  0  0  0
    1.3387   -3.1727   32.8431 C   0  0  0  0  0  0  0  0  0  0  0  0
    0.6303   -4.4134   32.4105 C   0  0  0  0  0  0  0  0  0  0  0  0
    0.6021   -4.6922   30.9691 C   0  0  0  0  0  0  0  0  0  0  0  0
    0.0157   -5.7769   30.4569 C   0  0  0  0  0  0  0  0  0  0  0  0
   -0.5926   -6.7140   31.3106 C   0  0  0  0  0  0  0  0  0  0  0  0
   -1.2300   -7.8207   31.0227 N   0  0  0  0  0  0  0  0  0  0  0  0
   -1.6709   -8.3492   32.1946 N   0  0  0  0  0  0  0  0  0  0  0  0
   -1.2867   -7.5751   33.1861 C   0  0  0  0  0  0  0  0  0  0  0  0
   -1.5107   -7.8594   34.4943 N   0  0  0  0  0  0  0  0  0  0  0  0
   -0.5991   -6.4640   32.6825 N   0  0  0  0  0  0  0  0  0  0  0  0
   -0.0066   -5.2947   33.2447 C   0  0  0  0  0  0  0  0  0  0  0  0
   -0.2446   -4.9159   34.9268 S   0  0  0  0  0  0  0  0  0  0  0  0
    0.8075   -6.0164   35.6997 C   0  0  0  0  0  0  0  0  0  0  0  0
    1.3469   -7.0836   35.1435 N   0  0  0  0  0  0  0  0  0  0  0  0
    1.9278   -7.7937   36.1628 N   0  0  0  0  0  0  0  0  0  0  0  0
    1.6701   -7.1328   37.2782 C   0  0  0  0  0  0  0  0  0  0  0  0
    1.9839   -7.5960   38.5789 C   0  0  0  0  0  0  0  0  0  0  0  0
    1.5264   -7.1525   39.8025 C   0  0  0  0  0  0  0  0  0  0  0  0
    2.0903   -7.9921   40.7917 C   0  0  0  0  0  0  0  0  0  0  0  0
    2.8940   -8.9059   40.1466 C   0  0  0  0  0  0  0  0  0  0  0  0
    2.8123   -8.6638   38.8021 N   0  0  0  0  0  0  0  0  0  0  0  0
    0.9815   -5.9787   37.0476 O   0  0  0  0  0  0  0  0  0  0  0  0
    2.6624   -2.9656   32.4294 C   0  0  0  0  0  0  0  0  0  0  0  0
    3.3538   -1.7997   32.7720 C   0  0  0  0  0  0  0  0  0  0  0  0
    2.7086    3.6620   33.1732 H   0  0  0  0  0  0  0  0  0  0  0  0
    4.0620    3.1382   34.2294 H   0  0  0  0  0  0  0  0  0  0  0  0
    2.4195    3.3344   34.9060 H   0  0  0  0  0  0  0  0  0  0  0  0
    1.7422    1.4251   33.4557 H   0  0  0  0  0  0  0  0  0  0  0  0
    0.9338   -0.2873   34.6157 H   0  0  0  0  0  0  0  0  0  0  0  0
   -0.3172   -2.2540   33.9000 H   0  0  0  0  0  0  0  0  0  0  0  0
    1.0332   -3.9544   30.2942 H   0  0  0  0  0  0  0  0  0  0  0  0
   -0.0389   -5.9307   29.3910 H   0  0  0  0  0  0  0  0  0  0  0  0
   -1.8232   -8.8364   34.5985 H   0  0  0  0  0  0  0  0  0  0  0  0
   -0.6958   -7.7812   35.0964 H   0  0  0  0  0  0  0  0  0  0  0  0
    0.8400   -6.3314   39.9687 H   0  0  0  0  0  0  0  0  0  0  0  0
    1.9263   -7.9416   41.8607 H   0  0  0  0  0  0  0  0  0  0  0  0
    3.4852   -9.7281   40.5279 H   0  0  0  0  0  0  0  0  0  0  0  0
    3.2539   -9.2200   38.0823 H   0  0  0  0  0  0  0  0  0  0  0  0
    3.1850   -3.7141   31.8381 H   0  0  0  0  0  0  0  0  0  0  0  0
    4.3843   -1.6655   32.4477 H   0  0  0  0  0  0  0  0  0  0  0  0
  1  2  1  0
  2  3  1  0
  3  4  2  0
  3  5  1  0
  5  6  2  0
  6  7  1  0
  7  8  2  0
  8  9  1  0
  9 10  1  0
 10 11  2  0
 11 12  1  0
 12 13  2  0
 13 14  1  0
 14 15  2  0
 15 16  1  0
 15 17  1  0
 17 18  1  0
 18 19  1  0
 19 20  1  0
 20 21  2  0
 21 22  1  0
 22 23  2  0
 23 24  1  0
 24 25  2  0
 25 26  1  0
 26 27  2  0
 27 28  1  0
 23 29  1  0
  8 30  1  0
 30 31  2  0
 31  5  1  0
 18  9  2  0
 29 20  1  0
 17 12  1  0
 28 24  1  0
  1 32  1  0
  1 33  1  0
  1 34  1  0
  2 35  1  0
  6 36  1  0
  7 37  1  0
 10 38  1  0
 11 39  1  0
 16 40  1  0
 16 41  1  0
 25 42  1  0
 26 43  1  0
 27 44  1  0
 28 45  1  0
 30 46  1  0
 31 47  1  0
M  END
>  <Energy>  (113) 
79.051066520517111

>  <compound_id>  (113) 
3937

>  <target_id>  (113) 
1

>  <reference_id>  (113) 
145

>  <inspiration_ids>  (113) 
[136, 145]

>  <energy_score>  (113) 
-38.7300930103672

>  <distance_score>  (113) 
1.2698267373229681

>  <path>  (113) 
/opt/xchem-fragalysis-2/maxwin/BulkDock/SCRATCH/505735/C3937-P145/C3937-P145.minimised.mol

>  <scratch_subdir>  (113) 
/opt/xchem-fragalysis-2/maxwin/BulkDock/SCRATCH/505735/C3937-P145

>  <fragmenstein_runtime>  (113) 
5.031126499176025

>  <fragmenstein_outcome>  (113) 
too moved

>  <fragmenstein_mode>  (113) 
expansion

>  <fragmenstein_error>  (113) 


$$$$
C3937-P136
     RDKit          3D

 47 51  0  0  0  0  0  0  0  0999 V2000
    2.5427    3.3750   30.5724 C   0  0  0  0  0  0  0  0  0  0  0  0
    2.3129    2.0209   30.9879 N   0  0  0  0  0  0  0  0  0  0  0  0
    3.0544    1.1707   31.8650 C   0  0  0  0  0  0  0  0  0  0  0  0
    4.1001    1.3407   32.4182 O   0  0  0  0  0  0  0  0  0  0  0  0
    2.3947   -0.1517   32.0952 C   0  0  0  0  0  0  0  0  0  0  0  0
    3.1862   -1.3076   32.1384 C   0  0  0  0  0  0  0  0  0  0  0  0
    2.5956   -2.5618   32.3204 C   0  0  0  0  0  0  0  0  0  0  0  0
    1.2078   -2.6668   32.4647 C   0  0  0  0  0  0  0  0  0  0  0  0
    0.5453   -3.9830   32.6196 C   0  0  0  0  0  0  0  0  0  0  0  0
    0.0247   -4.3357   33.9450 C   0  0  0  0  0  0  0  0  0  0  0  0
   -0.6143   -5.4874   34.1903 C   0  0  0  0  0  0  0  0  0  0  0  0
   -0.7776   -6.4229   33.1498 C   0  0  0  0  0  0  0  0  0  0  0  0
   -1.3604   -7.5972   33.1344 N   0  0  0  0  0  0  0  0  0  0  0  0
   -1.1655   -8.1435   31.9019 N   0  0  0  0  0  0  0  0  0  0  0  0
   -0.4416   -7.3088   31.1966 C   0  0  0  0  0  0  0  0  0  0  0  0
    0.1285   -7.6123   30.0145 N   0  0  0  0  0  0  0  0  0  0  0  0
   -0.2485   -6.1192   31.8987 N   0  0  0  0  0  0  0  0  0  0  0  0
    0.3706   -4.8724   31.5956 C   0  0  0  0  0  0  0  0  0  0  0  0
    0.9107   -4.5661   29.9500 S   0  0  0  0  0  0  0  0  0  0  0  0
   -0.0183   -3.1313   29.5799 C   0  0  0  0  0  0  0  0  0  0  0  0
   -1.2175   -2.8535   30.0486 N   0  0  0  0  0  0  0  0  0  0  0  0
   -1.5086   -1.5649   29.6376 N   0  0  0  0  0  0  0  0  0  0  0  0
   -0.4835   -1.1470   28.9186 C   0  0  0  0  0  0  0  0  0  0  0  0
   -0.3420    0.1777   28.4011 C   0  0  0  0  0  0  0  0  0  0  0  0
   -1.2151    1.2460   28.4160 C   0  0  0  0  0  0  0  0  0  0  0  0
   -0.5778    2.3500   27.8014 C   0  0  0  0  0  0  0  0  0  0  0  0
    0.6791    1.9324   27.4325 C   0  0  0  0  0  0  0  0  0  0  0  0
    0.8032    0.6096   27.7776 N   0  0  0  0  0  0  0  0  0  0  0  0
    0.5042   -2.1005   28.8404 O   0  0  0  0  0  0  0  0  0  0  0  0
    0.4284   -1.5008   32.4886 C   0  0  0  0  0  0  0  0  0  0  0  0
    1.0154   -0.2488   32.3017 C   0  0  0  0  0  0  0  0  0  0  0  0
    3.3935    3.7906   31.1170 H   0  0  0  0  0  0  0  0  0  0  0  0
    2.7488    3.3783   29.4999 H   0  0  0  0  0  0  0  0  0  0  0  0
    1.6417    3.9581   30.7753 H   0  0  0  0  0  0  0  0  0  0  0  0
    1.5064    1.5148   30.6407 H   0  0  0  0  0  0  0  0  0  0  0  0
    4.2654   -1.2292   32.0187 H   0  0  0  0  0  0  0  0  0  0  0  0
    3.2255   -3.4479   32.3383 H   0  0  0  0  0  0  0  0  0  0  0  0
    0.1460   -3.6122   34.7487 H   0  0  0  0  0  0  0  0  0  0  0  0
   -1.0146   -5.7185   35.1720 H   0  0  0  0  0  0  0  0  0  0  0  0
    0.9389   -7.0673   29.7341 H   0  0  0  0  0  0  0  0  0  0  0  0
    0.2915   -8.6169   29.8991 H   0  0  0  0  0  0  0  0  0  0  0  0
   -2.2109    1.2420   28.8304 H   0  0  0  0  0  0  0  0  0  0  0  0
   -0.9972    3.3382   27.6521 H   0  0  0  0  0  0  0  0  0  0  0  0
    1.4870    2.4544   26.9371 H   0  0  0  0  0  0  0  0  0  0  0  0
    1.6091    0.0265   27.5911 H   0  0  0  0  0  0  0  0  0  0  0  0
   -0.6512   -1.5646   32.6237 H   0  0  0  0  0  0  0  0  0  0  0  0
    0.3879    0.6381   32.3302 H   0  0  0  0  0  0  0  0  0  0  0  0
  1  2  1  0
  2  3  1  0
  3  4  2  0
  3  5  1  0
  5  6  2  0
  6  7  1  0
  7  8  2  0
  8  9  1  0
  9 10  1  0
 10 11  2  0
 11 12  1  0
 12 13  2  0
 13 14  1  0
 14 15  2  0
 15 16  1  0
 15 17  1  0
 17 18  1  0
 18 19  1  0
 19 20  1  0
 20 21  2  0
 21 22  1  0
 22 23  2  0
 23 24  1  0
 24 25  2  0
 25 26  1  0
 26 27  2  0
 27 28  1  0
 23 29  1  0
  8 30  1  0
 30 31  2  0
 31  5  1  0
 18  9  2  0
 29 20  1  0
 17 12  1  0
 28 24  1  0
  1 32  1  0
  1 33  1  0
  1 34  1  0
  2 35  1  0
  6 36  1  0
  7 37  1  0
 10 38  1  0
 11 39  1  0
 16 40  1  0
 16 41  1  0
 25 42  1  0
 26 43  1  0
 27 44  1  0
 28 45  1  0
 30 46  1  0
 31 47  1  0
M  END
>  <Energy>  (114) 
62.516276120224362

>  <compound_id>  (114) 
3937

>  <target_id>  (114) 
1

>  <reference_id>  (114) 
136

>  <inspiration_ids>  (114) 
[136, 147]

>  <energy_score>  (114) 
-93.25003375900417

>  <distance_score>  (114) 
2.6781402296278065

>  <path>  (114) 
/opt/xchem-fragalysis-2/maxwin/BulkDock/SCRATCH/505735/C3937-P136/C3937-P136.minimised.mol

>  <scratch_subdir>  (114) 
/opt/xchem-fragalysis-2/maxwin/BulkDock/SCRATCH/505735/C3937-P136

>  <fragmenstein_runtime>  (114) 
8.556735038757324

>  <fragmenstein_outcome>  (114) 
too moved

>  <fragmenstein_mode>  (114) 
expansion

>  <fragmenstein_error>  (114) 


$$$$
C3937-P147
     RDKit          3D

 47 51  0  0  0  0  0  0  0  0999 V2000
    5.7883    1.2078   35.4362 C   0  0  0  0  0  0  0  0  0  0  0  0
    4.9848    0.3472   34.6179 N   0  0  0  0  0  0  0  0  0  0  0  0
    3.7924    0.6681   33.7003 C   0  0  0  0  0  0  0  0  0  0  0  0
    3.3220    1.6912   33.4038 O   0  0  0  0  0  0  0  0  0  0  0  0
    3.2156   -0.5750   33.1101 C   0  0  0  0  0  0  0  0  0  0  0  0
    2.9790   -1.7114   33.8900 C   0  0  0  0  0  0  0  0  0  0  0  0
    2.3946   -2.8352   33.3051 C   0  0  0  0  0  0  0  0  0  0  0  0
    2.0365   -2.8268   31.9435 C   0  0  0  0  0  0  0  0  0  0  0  0
    1.3352   -3.9984   31.3936 C   0  0  0  0  0  0  0  0  0  0  0  0
    1.9120   -4.8801   30.3932 C   0  0  0  0  0  0  0  0  0  0  0  0
    1.2689   -5.9853   29.9823 C   0  0  0  0  0  0  0  0  0  0  0  0
    0.1265   -6.4449   30.6797 C   0  0  0  0  0  0  0  0  0  0  0  0
   -0.5385   -7.5797   30.6854 N   0  0  0  0  0  0  0  0  0  0  0  0
   -1.2996   -7.5906   31.8300 N   0  0  0  0  0  0  0  0  0  0  0  0
   -1.1041   -6.4481   32.4566 C   0  0  0  0  0  0  0  0  0  0  0  0
   -1.3461   -6.2032   33.7645 N   0  0  0  0  0  0  0  0  0  0  0  0
   -0.4084   -5.5793   31.6166 N   0  0  0  0  0  0  0  0  0  0  0  0
    0.0583   -4.2587   31.7646 C   0  0  0  0  0  0  0  0  0  0  0  0
   -1.0469   -2.9379   32.0450 S   0  0  0  0  0  0  0  0  0  0  0  0
   -0.9650   -2.1483   30.4569 C   0  0  0  0  0  0  0  0  0  0  0  0
   -0.9937   -2.7938   29.3134 N   0  0  0  0  0  0  0  0  0  0  0  0
   -1.0534   -1.8335   28.3237 N   0  0  0  0  0  0  0  0  0  0  0  0
   -1.0299   -0.6496   28.9023 C   0  0  0  0  0  0  0  0  0  0  0  0
   -1.1773    0.5928   28.1957 C   0  0  0  0  0  0  0  0  0  0  0  0
   -1.8080    0.8269   26.9873 C   0  0  0  0  0  0  0  0  0  0  0  0
   -1.8096    2.2202   26.7385 C   0  0  0  0  0  0  0  0  0  0  0  0
   -1.1163    2.8072   27.7701 C   0  0  0  0  0  0  0  0  0  0  0  0
   -0.7219    1.8140   28.6363 N   0  0  0  0  0  0  0  0  0  0  0  0
   -0.9274   -0.7780   30.2752 O   0  0  0  0  0  0  0  0  0  0  0  0
    2.2912   -1.6972   31.1669 C   0  0  0  0  0  0  0  0  0  0  0  0
    2.8594   -0.5672   31.7556 C   0  0  0  0  0  0  0  0  0  0  0  0
    5.4356    2.2371   35.3426 H   0  0  0  0  0  0  0  0  0  0  0  0
    5.7085    0.8747   36.4732 H   0  0  0  0  0  0  0  0  0  0  0  0
    6.8261    1.1332   35.1042 H   0  0  0  0  0  0  0  0  0  0  0  0
    5.1754   -0.6469   34.5892 H   0  0  0  0  0  0  0  0  0  0  0  0
    3.2027   -1.7170   34.9535 H   0  0  0  0  0  0  0  0  0  0  0  0
    2.1904   -3.7072   33.9246 H   0  0  0  0  0  0  0  0  0  0  0  0
    2.8215   -4.5567   29.8935 H   0  0  0  0  0  0  0  0  0  0  0  0
    1.6797   -6.5760   29.1791 H   0  0  0  0  0  0  0  0  0  0  0  0
   -1.7691   -5.3043   34.0143 H   0  0  0  0  0  0  0  0  0  0  0  0
   -1.8106   -6.9698   34.2442 H   0  0  0  0  0  0  0  0  0  0  0  0
   -2.2534    0.0571   26.3699 H   0  0  0  0  0  0  0  0  0  0  0  0
   -2.2674    2.7350   25.9027 H   0  0  0  0  0  0  0  0  0  0  0  0
   -0.8883    3.8447   27.9783 H   0  0  0  0  0  0  0  0  0  0  0  0
   -0.2079    1.9673   29.4930 H   0  0  0  0  0  0  0  0  0  0  0  0
    2.0246   -1.6714   30.1119 H   0  0  0  0  0  0  0  0  0  0  0  0
    3.0299    0.3257   31.1564 H   0  0  0  0  0  0  0  0  0  0  0  0
  1  2  1  0
  2  3  1  0
  3  4  2  0
  3  5  1  0
  5  6  2  0
  6  7  1  0
  7  8  2  0
  8  9  1  0
  9 10  1  0
 10 11  2  0
 11 12  1  0
 12 13  2  0
 13 14  1  0
 14 15  2  0
 15 16  1  0
 15 17  1  0
 17 18  1  0
 18 19  1  0
 19 20  1  0
 20 21  2  0
 21 22  1  0
 22 23  2  0
 23 24  1  0
 24 25  2  0
 25 26  1  0
 26 27  2  0
 27 28  1  0
 23 29  1  0
  8 30  1  0
 30 31  2  0
 31  5  1  0
 18  9  2  0
 29 20  1  0
 17 12  1  0
 28 24  1  0
  1 32  1  0
  1 33  1  0
  1 34  1  0
  2 35  1  0
  6 36  1  0
  7 37  1  0
 10 38  1  0
 11 39  1  0
 16 40  1  0
 16 41  1  0
 25 42  1  0
 26 43  1  0
 27 44  1  0
 28 45  1  0
 30 46  1  0
 31 47  1  0
M  END
>  <Energy>  (115) 
104.07685335453938

>  <compound_id>  (115) 
3937

>  <target_id>  (115) 
1

>  <reference_id>  (115) 
147

>  <inspiration_ids>  (115) 
[136, 147]

>  <energy_score>  (115) 
-19.620360110620368

>  <distance_score>  (115) 
1.6555980444289093

>  <path>  (115) 
/opt/xchem-fragalysis-2/maxwin/BulkDock/SCRATCH/505735/C3937-P147/C3937-P147.minimised.mol

>  <scratch_subdir>  (115) 
/opt/xchem-fragalysis-2/maxwin/BulkDock/SCRATCH/505735/C3937-P147

>  <fragmenstein_runtime>  (115) 
7.759012937545776

>  <fragmenstein_outcome>  (115) 
too moved

>  <fragmenstein_mode>  (115) 
expansion

>  <fragmenstein_error>  (115) 


$$$$
C3938-P136
     RDKit          3D

 51 55  0  0  0  0  0  0  0  0999 V2000
    3.3259    2.3871   35.7454 C   0  0  0  0  0  0  0  0  0  0  0  0
    2.9698    1.1461   35.1220 N   0  0  0  0  0  0  0  0  0  0  0  0
    3.8521    0.0593   34.4819 C   0  0  0  0  0  0  0  0  0  0  0  0
    5.0007    0.0351   34.2909 O   0  0  0  0  0  0  0  0  0  0  0  0
    3.0393   -1.1128   34.0375 C   0  0  0  0  0  0  0  0  0  0  0  0
    3.5535   -2.3970   34.2537 C   0  0  0  0  0  0  0  0  0  0  0  0
    2.8430   -3.5239   33.8333 C   0  0  0  0  0  0  0  0  0  0  0  0
    1.6001   -3.3778   33.2109 C   0  0  0  0  0  0  0  0  0  0  0  0
    0.8435   -4.5371   32.6930 C   0  0  0  0  0  0  0  0  0  0  0  0
    0.6362   -4.6215   31.2398 C   0  0  0  0  0  0  0  0  0  0  0  0
    0.0047   -5.6468   30.6577 C   0  0  0  0  0  0  0  0  0  0  0  0
   -0.5516   -6.6599   31.4616 C   0  0  0  0  0  0  0  0  0  0  0  0
   -1.2572   -7.7194   31.1435 N   0  0  0  0  0  0  0  0  0  0  0  0
   -1.6404   -8.3119   32.3142 N   0  0  0  0  0  0  0  0  0  0  0  0
   -1.1712   -7.6074   33.3234 C   0  0  0  0  0  0  0  0  0  0  0  0
   -1.4348   -7.8119   34.6390 N   0  0  0  0  0  0  0  0  0  0  0  0
   -0.3879   -6.5676   32.8393 N   0  0  0  0  0  0  0  0  0  0  0  0
    0.3859   -5.5543   33.4860 C   0  0  0  0  0  0  0  0  0  0  0  0
    0.7100   -5.7370   34.8587 N   0  0  0  0  0  0  0  0  0  0  0  0
    1.6708   -6.6754   35.1247 C   0  0  0  0  0  0  0  0  0  0  0  0
    2.2289   -7.4896   34.2606 N   0  0  0  0  0  0  0  0  0  0  0  0
    3.1839   -8.2117   34.8934 N   0  0  0  0  0  0  0  0  0  0  0  0
    3.2041   -7.8578   36.1629 C   0  0  0  0  0  0  0  0  0  0  0  0
    4.0966   -8.4559   37.1490 C   0  0  0  0  0  0  0  0  0  0  0  0
    5.2483   -9.1123   36.6765 C   0  0  0  0  0  0  0  0  0  0  0  0
    6.0806   -9.8174   37.5398 C   0  0  0  0  0  0  0  0  0  0  0  0
    5.7770   -9.8709   38.8942 C   0  0  0  0  0  0  0  0  0  0  0  0
    4.6480   -9.2123   39.3818 C   0  0  0  0  0  0  0  0  0  0  0  0
    3.8077   -8.5049   38.5149 C   0  0  0  0  0  0  0  0  0  0  0  0
    2.2386   -6.8925   36.3547 N   0  0  0  0  0  0  0  0  0  0  0  0
    1.1017   -2.0859   32.9713 C   0  0  0  0  0  0  0  0  0  0  0  0
    1.8219   -0.9570   33.3684 C   0  0  0  0  0  0  0  0  0  0  0  0
    4.4115    2.5055   35.7327 H   0  0  0  0  0  0  0  0  0  0  0  0
    2.8515    3.2015   35.1937 H   0  0  0  0  0  0  0  0  0  0  0  0
    2.9597    2.3767   36.7742 H   0  0  0  0  0  0  0  0  0  0  0  0
    1.9976    0.8741   35.0557 H   0  0  0  0  0  0  0  0  0  0  0  0
    4.5267   -2.5174   34.7272 H   0  0  0  0  0  0  0  0  0  0  0  0
    3.2883   -4.5082   33.9637 H   0  0  0  0  0  0  0  0  0  0  0  0
    1.0477   -3.8294   30.6176 H   0  0  0  0  0  0  0  0  0  0  0  0
   -0.1296   -5.6849   29.5867 H   0  0  0  0  0  0  0  0  0  0  0  0
   -1.5768   -8.8183   34.8396 H   0  0  0  0  0  0  0  0  0  0  0  0
   -0.7445   -7.4565   35.2899 H   0  0  0  0  0  0  0  0  0  0  0  0
    0.8571   -4.8368   35.3140 H   0  0  0  0  0  0  0  0  0  0  0  0
    5.4881   -9.1025   35.6136 H   0  0  0  0  0  0  0  0  0  0  0  0
    6.9578  -10.3289   37.1538 H   0  0  0  0  0  0  0  0  0  0  0  0
    6.4171  -10.4260   39.5760 H   0  0  0  0  0  0  0  0  0  0  0  0
    4.4107   -9.2646   40.4423 H   0  0  0  0  0  0  0  0  0  0  0  0
    2.9102   -8.0465   38.9204 H   0  0  0  0  0  0  0  0  0  0  0  0
    2.0011   -6.4390   37.2224 H   0  0  0  0  0  0  0  0  0  0  0  0
    0.1528   -1.9482   32.4539 H   0  0  0  0  0  0  0  0  0  0  0  0
    1.4354    0.0294   33.1258 H   0  0  0  0  0  0  0  0  0  0  0  0
  1  2  1  0
  2  3  1  0
  3  4  2  0
  3  5  1  0
  5  6  2  0
  6  7  1  0
  7  8  2  0
  8  9  1  0
  9 10  1  0
 10 11  2  0
 11 12  1  0
 12 13  2  0
 13 14  1  0
 14 15  2  0
 15 16  1  0
 15 17  1  0
 17 18  1  0
 18 19  1  0
 19 20  1  0
 20 21  2  0
 21 22  1  0
 22 23  2  0
 23 24  1  0
 24 25  2  0
 25 26  1  0
 26 27  2  0
 27 28  1  0
 28 29  2  0
 23 30  1  0
  8 31  1  0
 31 32  2  0
 32  5  1  0
 18  9  2  0
 30 20  1  0
 17 12  1  0
 29 24  1  0
  1 33  1  0
  1 34  1  0
  1 35  1  0
  2 36  1  0
  6 37  1  0
  7 38  1  0
 10 39  1  0
 11 40  1  0
 16 41  1  0
 16 42  1  0
 19 43  1  0
 25 44  1  0
 26 45  1  0
 27 46  1  0
 28 47  1  0
 29 48  1  0
 30 49  1  0
 31 50  1  0
 32 51  1  0
M  END
>  <Energy>  (116) 
100.03914102737943

>  <compound_id>  (116) 
3938

>  <target_id>  (116) 
1

>  <reference_id>  (116) 
136

>  <inspiration_ids>  (116) 
[136, 148]

>  <energy_score>  (116) 
-45.00822593373634

>  <distance_score>  (116) 
0.8523994979544838

>  <path>  (116) 
/opt/xchem-fragalysis-2/maxwin/BulkDock/SCRATCH/505735/C3938-P136/C3938-P136.minimised.mol

>  <scratch_subdir>  (116) 
/opt/xchem-fragalysis-2/maxwin/BulkDock/SCRATCH/505735/C3938-P136

>  <fragmenstein_runtime>  (116) 
3.1159884929656982

>  <fragmenstein_outcome>  (116) 
acceptable

>  <fragmenstein_mode>  (116) 
expansion

>  <fragmenstein_error>  (116) 


$$$$
C3938-P148
     RDKit          3D

 51 55  0  0  0  0  0  0  0  0999 V2000
    3.2681    2.4858   35.4776 C   0  0  0  0  0  0  0  0  0  0  0  0
    2.9369    1.1716   35.0094 N   0  0  0  0  0  0  0  0  0  0  0  0
    3.8347    0.0544   34.4486 C   0  0  0  0  0  0  0  0  0  0  0  0
    4.9936   -0.0045   34.3495 O   0  0  0  0  0  0  0  0  0  0  0  0
    3.0275   -1.1264   34.0122 C   0  0  0  0  0  0  0  0  0  0  0  0
    3.5367   -2.4084   34.2542 C   0  0  0  0  0  0  0  0  0  0  0  0
    2.8312   -3.5412   33.8403 C   0  0  0  0  0  0  0  0  0  0  0  0
    1.5976   -3.4026   33.1984 C   0  0  0  0  0  0  0  0  0  0  0  0
    0.8463   -4.5685   32.6888 C   0  0  0  0  0  0  0  0  0  0  0  0
    0.6865   -4.6941   31.2323 C   0  0  0  0  0  0  0  0  0  0  0  0
    0.0782   -5.7385   30.6584 C   0  0  0  0  0  0  0  0  0  0  0  0
   -0.5158   -6.7225   31.4732 C   0  0  0  0  0  0  0  0  0  0  0  0
   -1.2177   -7.7888   31.1636 N   0  0  0  0  0  0  0  0  0  0  0  0
   -1.6621   -8.3336   32.3355 N   0  0  0  0  0  0  0  0  0  0  0  0
   -1.2255   -7.5988   33.3374 C   0  0  0  0  0  0  0  0  0  0  0  0
   -1.5264   -7.7750   34.6486 N   0  0  0  0  0  0  0  0  0  0  0  0
   -0.4096   -6.5827   32.8523 N   0  0  0  0  0  0  0  0  0  0  0  0
    0.3586   -5.5611   33.4951 C   0  0  0  0  0  0  0  0  0  0  0  0
    0.6668   -5.7213   34.8770 N   0  0  0  0  0  0  0  0  0  0  0  0
    1.5843   -6.6975   35.1635 C   0  0  0  0  0  0  0  0  0  0  0  0
    2.0268   -7.6066   34.3283 N   0  0  0  0  0  0  0  0  0  0  0  0
    3.0003   -8.3238   34.9332 N   0  0  0  0  0  0  0  0  0  0  0  0
    3.1304   -7.8880   36.1702 C   0  0  0  0  0  0  0  0  0  0  0  0
    4.0657   -8.4615   37.1278 C   0  0  0  0  0  0  0  0  0  0  0  0
    5.2316   -9.0662   36.6248 C   0  0  0  0  0  0  0  0  0  0  0  0
    6.1011   -9.7555   37.4639 C   0  0  0  0  0  0  0  0  0  0  0  0
    5.8187   -9.8454   38.8214 C   0  0  0  0  0  0  0  0  0  0  0  0
    4.6725   -9.2404   39.3372 C   0  0  0  0  0  0  0  0  0  0  0  0
    3.7959   -8.5476   38.4956 C   0  0  0  0  0  0  0  0  0  0  0  0
    2.2315   -6.8596   36.3629 N   0  0  0  0  0  0  0  0  0  0  0  0
    1.1036   -2.1142   32.9327 C   0  0  0  0  0  0  0  0  0  0  0  0
    1.8192   -0.9803   33.3242 C   0  0  0  0  0  0  0  0  0  0  0  0
    4.3444    2.6467   35.3875 H   0  0  0  0  0  0  0  0  0  0  0  0
    2.7257    3.2164   34.8736 H   0  0  0  0  0  0  0  0  0  0  0  0
    2.9603    2.5702   36.5220 H   0  0  0  0  0  0  0  0  0  0  0  0
    1.9747    0.8584   35.0200 H   0  0  0  0  0  0  0  0  0  0  0  0
    4.5033   -2.5228   34.7429 H   0  0  0  0  0  0  0  0  0  0  0  0
    3.2744   -4.5233   33.9912 H   0  0  0  0  0  0  0  0  0  0  0  0
    1.1243   -3.9220   30.6022 H   0  0  0  0  0  0  0  0  0  0  0  0
   -0.0125   -5.8116   29.5833 H   0  0  0  0  0  0  0  0  0  0  0  0
   -1.6639   -8.7705   34.8658 H   0  0  0  0  0  0  0  0  0  0  0  0
   -0.8758   -7.3579   35.3069 H   0  0  0  0  0  0  0  0  0  0  0  0
    0.8555   -4.8168   35.3094 H   0  0  0  0  0  0  0  0  0  0  0  0
    5.4519   -9.0325   35.5583 H   0  0  0  0  0  0  0  0  0  0  0  0
    6.9893  -10.2325   37.0576 H   0  0  0  0  0  0  0  0  0  0  0  0
    6.4871  -10.3928   39.4818 H   0  0  0  0  0  0  0  0  0  0  0  0
    4.4462   -9.3305   40.3976 H   0  0  0  0  0  0  0  0  0  0  0  0
    2.8828   -8.1397   38.9202 H   0  0  0  0  0  0  0  0  0  0  0  0
    2.1040   -6.3240   37.2071 H   0  0  0  0  0  0  0  0  0  0  0  0
    0.1630   -1.9829   32.3988 H   0  0  0  0  0  0  0  0  0  0  0  0
    1.4369    0.0031   33.0625 H   0  0  0  0  0  0  0  0  0  0  0  0
  1  2  1  0
  2  3  1  0
  3  4  2  0
  3  5  1  0
  5  6  2  0
  6  7  1  0
  7  8  2  0
  8  9  1  0
  9 10  1  0
 10 11  2  0
 11 12  1  0
 12 13  2  0
 13 14  1  0
 14 15  2  0
 15 16  1  0
 15 17  1  0
 17 18  1  0
 18 19  1  0
 19 20  1  0
 20 21  2  0
 21 22  1  0
 22 23  2  0
 23 24  1  0
 24 25  2  0
 25 26  1  0
 26 27  2  0
 27 28  1  0
 28 29  2  0
 23 30  1  0
  8 31  1  0
 31 32  2  0
 32  5  1  0
 18  9  2  0
 30 20  1  0
 17 12  1  0
 29 24  1  0
  1 33  1  0
  1 34  1  0
  1 35  1  0
  2 36  1  0
  6 37  1  0
  7 38  1  0
 10 39  1  0
 11 40  1  0
 16 41  1  0
 16 42  1  0
 19 43  1  0
 25 44  1  0
 26 45  1  0
 27 46  1  0
 28 47  1  0
 29 48  1  0
 30 49  1  0
 31 50  1  0
 32 51  1  0
M  END
>  <Energy>  (117) 
100.55109744461464

>  <compound_id>  (117) 
3938

>  <target_id>  (117) 
1

>  <reference_id>  (117) 
148

>  <inspiration_ids>  (117) 
[136, 148]

>  <energy_score>  (117) 
-44.49626951649984

>  <distance_score>  (117) 
0.8440294129497555

>  <path>  (117) 
/opt/xchem-fragalysis-2/maxwin/BulkDock/SCRATCH/505735/C3938-P148/C3938-P148.minimised.mol

>  <scratch_subdir>  (117) 
/opt/xchem-fragalysis-2/maxwin/BulkDock/SCRATCH/505735/C3938-P148

>  <fragmenstein_runtime>  (117) 
3.388089656829834

>  <fragmenstein_outcome>  (117) 
acceptable

>  <fragmenstein_mode>  (117) 
expansion

>  <fragmenstein_error>  (117) 


$$$$
C3939-P136
     RDKit          3D

 60 64  0  0  0  0  0  0  0  0999 V2000
    3.0715    3.1372   33.6826 C   0  0  0  0  0  0  0  0  0  0  0  0
    2.7279    1.7458   33.6538 N   0  0  0  0  0  0  0  0  0  0  0  0
    3.0748    0.6100   34.6325 C   0  0  0  0  0  0  0  0  0  0  0  0
    3.6293    0.6386   35.6562 O   0  0  0  0  0  0  0  0  0  0  0  0
    2.5648   -0.7032   34.1431 C   0  0  0  0  0  0  0  0  0  0  0  0
    3.3998   -1.8177   34.2327 C   0  0  0  0  0  0  0  0  0  0  0  0
    2.9584   -3.0642   33.7854 C   0  0  0  0  0  0  0  0  0  0  0  0
    1.6611   -3.2316   33.2813 C   0  0  0  0  0  0  0  0  0  0  0  0
    1.2255   -4.5914   32.7502 C   0  0  0  0  0  0  0  0  0  0  0  0
    0.3479   -4.4118   31.4896 C   0  0  0  0  0  0  0  0  0  0  0  0
    0.2665   -5.7334   30.7567 C   0  0  0  0  0  0  0  0  0  0  0  0
   -0.3512   -6.7036   31.6683 C   0  0  0  0  0  0  0  0  0  0  0  0
   -1.2013   -7.6427   31.3303 N   0  0  0  0  0  0  0  0  0  0  0  0
   -1.6493   -8.2072   32.4844 N   0  0  0  0  0  0  0  0  0  0  0  0
   -1.0495   -7.6262   33.4969 C   0  0  0  0  0  0  0  0  0  0  0  0
   -1.2041   -7.9306   34.7979 N   0  0  0  0  0  0  0  0  0  0  0  0
   -0.1909   -6.6613   33.0394 N   0  0  0  0  0  0  0  0  0  0  0  0
    0.6656   -5.6948   33.7984 C   0  0  0  0  0  0  0  0  0  0  0  0
   -0.1277   -5.0697   34.9828 C   0  0  0  0  0  0  0  0  0  0  0  0
    0.1541   -5.6293   36.3849 C   0  0  0  0  0  0  0  0  0  0  0  0
    1.5550   -5.3019   36.8678 C   0  0  0  0  0  0  0  0  0  0  0  0
    2.6783   -5.9574   36.0784 C   0  0  0  0  0  0  0  0  0  0  0  0
    3.5250   -7.0296   36.7765 C   0  0  0  0  0  0  0  0  0  0  0  0
    4.8232   -7.2928   36.2943 C   0  0  0  0  0  0  0  0  0  0  0  0
    5.6225   -8.2872   36.8638 C   0  0  0  0  0  0  0  0  0  0  0  0
    5.1606   -9.0151   37.9529 C   0  0  0  0  0  0  0  0  0  0  0  0
    3.8905   -8.7573   38.4585 C   0  0  0  0  0  0  0  0  0  0  0  0
    3.0710   -7.7881   37.8649 C   0  0  0  0  0  0  0  0  0  0  0  0
    2.1759   -6.6144   34.4803 S   0  0  0  0  0  0  0  0  0  0  0  0
    1.8215   -8.0062   34.6805 O   0  0  0  0  0  0  0  0  0  0  0  0
    3.2935   -6.3313   33.5976 O   0  0  0  0  0  0  0  0  0  0  0  0
    0.8239   -2.1042   33.2192 C   0  0  0  0  0  0  0  0  0  0  0  0
    1.2720   -0.8489   33.6394 C   0  0  0  0  0  0  0  0  0  0  0  0
    3.6322    3.3753   32.7762 H   0  0  0  0  0  0  0  0  0  0  0  0
    3.6773    3.3471   34.5667 H   0  0  0  0  0  0  0  0  0  0  0  0
    2.1496    3.7220   33.7097 H   0  0  0  0  0  0  0  0  0  0  0  0
    2.1670    1.3786   32.8953 H   0  0  0  0  0  0  0  0  0  0  0  0
    4.4079   -1.7082   34.6290 H   0  0  0  0  0  0  0  0  0  0  0  0
    3.6704   -3.8858   33.8039 H   0  0  0  0  0  0  0  0  0  0  0  0
    2.1410   -4.9948   32.3013 H   0  0  0  0  0  0  0  0  0  0  0  0
    0.7812   -3.6636   30.8133 H   0  0  0  0  0  0  0  0  0  0  0  0
   -0.6583   -4.0649   31.7595 H   0  0  0  0  0  0  0  0  0  0  0  0
    1.2568   -6.0797   30.4429 H   0  0  0  0  0  0  0  0  0  0  0  0
   -0.3372   -5.6142   29.8539 H   0  0  0  0  0  0  0  0  0  0  0  0
   -0.3464   -8.2954   35.2248 H   0  0  0  0  0  0  0  0  0  0  0  0
   -1.7814   -8.7858   34.8804 H   0  0  0  0  0  0  0  0  0  0  0  0
    0.0525   -3.9939   35.0474 H   0  0  0  0  0  0  0  0  0  0  0  0
   -1.2034   -5.1415   34.7891 H   0  0  0  0  0  0  0  0  0  0  0  0
   -0.5593   -5.1598   37.0749 H   0  0  0  0  0  0  0  0  0  0  0  0
   -0.0161   -6.7005   36.4742 H   0  0  0  0  0  0  0  0  0  0  0  0
    1.6810   -4.2121   36.7929 H   0  0  0  0  0  0  0  0  0  0  0  0
    1.6350   -5.5043   37.9412 H   0  0  0  0  0  0  0  0  0  0  0  0
    3.3798   -5.1447   35.8456 H   0  0  0  0  0  0  0  0  0  0  0  0
    5.2244   -6.7333   35.4502 H   0  0  0  0  0  0  0  0  0  0  0  0
    6.6140   -8.4812   36.4625 H   0  0  0  0  0  0  0  0  0  0  0  0
    5.7830   -9.7817   38.4060 H   0  0  0  0  0  0  0  0  0  0  0  0
    3.5145   -9.3323   39.3018 H   0  0  0  0  0  0  0  0  0  0  0  0
    2.0661   -7.6635   38.2637 H   0  0  0  0  0  0  0  0  0  0  0  0
   -0.1987   -2.1770   32.8532 H   0  0  0  0  0  0  0  0  0  0  0  0
    0.5862   -0.0055   33.6108 H   0  0  0  0  0  0  0  0  0  0  0  0
  1  2  1  0
  2  3  1  0
  3  4  2  0
  3  5  1  0
  5  6  2  0
  6  7  1  0
  7  8  2  0
  8  9  1  0
  9 10  1  0
 10 11  1  0
 11 12  1  0
 12 13  2  0
 13 14  1  0
 14 15  2  0
 15 16  1  0
 15 17  1  0
 17 18  1  0
 18 19  1  0
 19 20  1  0
 20 21  1  0
 21 22  1  0
 22 23  1  0
 23 24  2  0
 24 25  1  0
 25 26  2  0
 26 27  1  0
 27 28  2  0
 22 29  1  0
 29 30  2  0
 29 31  2  0
  8 32  1  0
 32 33  2  0
 33  5  1  0
 18  9  1  0
 28 23  1  0
 17 12  1  0
 29 18  1  0
  1 34  1  0
  1 35  1  0
  1 36  1  0
  2 37  1  0
  6 38  1  0
  7 39  1  0
  9 40  1  0
 10 41  1  0
 10 42  1  0
 11 43  1  0
 11 44  1  0
 16 45  1  0
 16 46  1  0
 19 47  1  0
 19 48  1  0
 20 49  1  0
 20 50  1  0
 21 51  1  0
 21 52  1  0
 22 53  1  0
 24 54  1  0
 25 55  1  0
 26 56  1  0
 27 57  1  0
 28 58  1  0
 32 59  1  0
 33 60  1  0
M  END
>  <Energy>  (118) 
77.662629872127894

>  <compound_id>  (118) 
3939

>  <target_id>  (118) 
1

>  <reference_id>  (118) 
136

>  <inspiration_ids>  (118) 
[136, 149]

>  <energy_score>  (118) 
-53.75592120838209

>  <distance_score>  (118) 
1.4067251886320151

>  <path>  (118) 
/opt/xchem-fragalysis-2/maxwin/BulkDock/SCRATCH/505735/C3939-P136/C3939-P136.minimised.mol

>  <scratch_subdir>  (118) 
/opt/xchem-fragalysis-2/maxwin/BulkDock/SCRATCH/505735/C3939-P136

>  <fragmenstein_runtime>  (118) 
5.410710334777832

>  <fragmenstein_outcome>  (118) 
too moved

>  <fragmenstein_mode>  (118) 
expansion

>  <fragmenstein_error>  (118) 


$$$$
C3939-P149
     RDKit          3D

 60 64  0  0  0  0  0  0  0  0999 V2000
    2.1567    3.2005   33.6873 C   0  0  0  0  0  0  0  0  0  0  0  0
    2.1241    1.7729   33.5621 N   0  0  0  0  0  0  0  0  0  0  0  0
    3.1314    0.7056   34.0249 C   0  0  0  0  0  0  0  0  0  0  0  0
    4.1826    0.8209   34.5123 O   0  0  0  0  0  0  0  0  0  0  0  0
    2.6215   -0.6672   33.7447 C   0  0  0  0  0  0  0  0  0  0  0  0
    1.3144   -1.0384   34.0521 C   0  0  0  0  0  0  0  0  0  0  0  0
    0.8603   -2.3286   33.7621 C   0  0  0  0  0  0  0  0  0  0  0  0
    1.7203   -3.2946   33.2291 C   0  0  0  0  0  0  0  0  0  0  0  0
    1.2475   -4.6837   32.8195 C   0  0  0  0  0  0  0  0  0  0  0  0
    0.3354   -4.4664   31.5957 C   0  0  0  0  0  0  0  0  0  0  0  0
    0.2202   -5.7840   30.8720 C   0  0  0  0  0  0  0  0  0  0  0  0
   -0.3958   -6.7413   31.8004 C   0  0  0  0  0  0  0  0  0  0  0  0
   -1.2563   -7.6701   31.4618 N   0  0  0  0  0  0  0  0  0  0  0  0
   -1.6857   -8.2488   32.6107 N   0  0  0  0  0  0  0  0  0  0  0  0
   -1.0556   -7.6975   33.6216 C   0  0  0  0  0  0  0  0  0  0  0  0
   -1.1810   -8.0732   34.9030 N   0  0  0  0  0  0  0  0  0  0  0  0
   -0.2100   -6.7140   33.1775 N   0  0  0  0  0  0  0  0  0  0  0  0
    0.6781   -5.7612   33.9131 C   0  0  0  0  0  0  0  0  0  0  0  0
   -0.0041   -5.0383   35.1016 C   0  0  0  0  0  0  0  0  0  0  0  0
   -0.2321   -5.7410   36.4396 C   0  0  0  0  0  0  0  0  0  0  0  0
    0.8617   -6.6604   36.9753 C   0  0  0  0  0  0  0  0  0  0  0  0
    2.2506   -6.3991   36.4130 C   0  0  0  0  0  0  0  0  0  0  0  0
    3.3660   -7.2889   36.9932 C   0  0  0  0  0  0  0  0  0  0  0  0
    4.7021   -7.1019   36.5940 C   0  0  0  0  0  0  0  0  0  0  0  0
    5.7264   -7.9340   37.0579 C   0  0  0  0  0  0  0  0  0  0  0  0
    5.4566   -8.9332   37.9830 C   0  0  0  0  0  0  0  0  0  0  0  0
    4.1577   -9.0979   38.4429 C   0  0  0  0  0  0  0  0  0  0  0  0
    3.1236   -8.2926   37.9478 C   0  0  0  0  0  0  0  0  0  0  0  0
    2.2182   -6.6252   34.6186 S   0  0  0  0  0  0  0  0  0  0  0  0
    2.0952   -8.0487   34.3628 O   0  0  0  0  0  0  0  0  0  0  0  0
    3.3900   -5.9346   34.1046 O   0  0  0  0  0  0  0  0  0  0  0  0
    3.0338   -2.9050   32.9298 C   0  0  0  0  0  0  0  0  0  0  0  0
    3.4811   -1.6058   33.1830 C   0  0  0  0  0  0  0  0  0  0  0  0
    3.0685    3.5025   34.2070 H   0  0  0  0  0  0  0  0  0  0  0  0
    1.2777    3.5197   34.2516 H   0  0  0  0  0  0  0  0  0  0  0  0
    2.1305    3.6376   32.6868 H   0  0  0  0  0  0  0  0  0  0  0  0
    1.3403    1.3225   33.1052 H   0  0  0  0  0  0  0  0  0  0  0  0
    0.6314   -0.3279   34.5123 H   0  0  0  0  0  0  0  0  0  0  0  0
   -0.1894   -2.5476   33.9494 H   0  0  0  0  0  0  0  0  0  0  0  0
    2.1267   -5.1680   32.3740 H   0  0  0  0  0  0  0  0  0  0  0  0
    0.7609   -3.7263   30.9052 H   0  0  0  0  0  0  0  0  0  0  0  0
   -0.6497   -4.0900   31.9030 H   0  0  0  0  0  0  0  0  0  0  0  0
    1.2004   -6.1425   30.5472 H   0  0  0  0  0  0  0  0  0  0  0  0
   -0.3779   -5.6653   29.9669 H   0  0  0  0  0  0  0  0  0  0  0  0
   -0.3705   -8.5917   35.2490 H   0  0  0  0  0  0  0  0  0  0  0  0
   -1.8605   -8.8503   34.9605 H   0  0  0  0  0  0  0  0  0  0  0  0
    0.6369   -4.2012   35.3920 H   0  0  0  0  0  0  0  0  0  0  0  0
   -0.9556   -4.6063   34.7702 H   0  0  0  0  0  0  0  0  0  0  0  0
   -0.3756   -4.9439   37.1845 H   0  0  0  0  0  0  0  0  0  0  0  0
   -1.1951   -6.2572   36.4480 H   0  0  0  0  0  0  0  0  0  0  0  0
    0.8756   -6.5517   38.0681 H   0  0  0  0  0  0  0  0  0  0  0  0
    0.5770   -7.7010   36.7963 H   0  0  0  0  0  0  0  0  0  0  0  0
    2.5263   -5.3529   36.5950 H   0  0  0  0  0  0  0  0  0  0  0  0
    4.9759   -6.3109   35.8981 H   0  0  0  0  0  0  0  0  0  0  0  0
    6.7442   -7.7810   36.7065 H   0  0  0  0  0  0  0  0  0  0  0  0
    6.2555   -9.5681   38.3547 H   0  0  0  0  0  0  0  0  0  0  0  0
    3.9346   -9.8684   39.1767 H   0  0  0  0  0  0  0  0  0  0  0  0
    2.1219   -8.4956   38.3227 H   0  0  0  0  0  0  0  0  0  0  0  0
    3.7382   -3.6124   32.4922 H   0  0  0  0  0  0  0  0  0  0  0  0
    4.5094   -1.3330   32.9523 H   0  0  0  0  0  0  0  0  0  0  0  0
  1  2  1  0
  2  3  1  0
  3  4  2  0
  3  5  1  0
  5  6  2  0
  6  7  1  0
  7  8  2  0
  8  9  1  0
  9 10  1  0
 10 11  1  0
 11 12  1  0
 12 13  2  0
 13 14  1  0
 14 15  2  0
 15 16  1  0
 15 17  1  0
 17 18  1  0
 18 19  1  0
 19 20  1  0
 20 21  1  0
 21 22  1  0
 22 23  1  0
 23 24  2  0
 24 25  1  0
 25 26  2  0
 26 27  1  0
 27 28  2  0
 22 29  1  0
 29 30  2  0
 29 31  2  0
  8 32  1  0
 32 33  2  0
 33  5  1  0
 18  9  1  0
 28 23  1  0
 17 12  1  0
 29 18  1  0
  1 34  1  0
  1 35  1  0
  1 36  1  0
  2 37  1  0
  6 38  1  0
  7 39  1  0
  9 40  1  0
 10 41  1  0
 10 42  1  0
 11 43  1  0
 11 44  1  0
 16 45  1  0
 16 46  1  0
 19 47  1  0
 19 48  1  0
 20 49  1  0
 20 50  1  0
 21 51  1  0
 21 52  1  0
 22 53  1  0
 24 54  1  0
 25 55  1  0
 26 56  1  0
 27 57  1  0
 28 58  1  0
 32 59  1  0
 33 60  1  0
M  END
>  <Energy>  (119) 
80.197683349807534

>  <compound_id>  (119) 
3939

>  <target_id>  (119) 
1

>  <reference_id>  (119) 
149

>  <inspiration_ids>  (119) 
[136, 149]

>  <energy_score>  (119) 
-51.220867730701826

>  <distance_score>  (119) 
1.512577986558064

>  <path>  (119) 
/opt/xchem-fragalysis-2/maxwin/BulkDock/SCRATCH/505735/C3939-P149/C3939-P149.minimised.mol

>  <scratch_subdir>  (119) 
/opt/xchem-fragalysis-2/maxwin/BulkDock/SCRATCH/505735/C3939-P149

>  <fragmenstein_runtime>  (119) 
4.988025903701782

>  <fragmenstein_outcome>  (119) 
too moved

>  <fragmenstein_mode>  (119) 
expansion

>  <fragmenstein_error>  (119) 


$$$$
C3939-P136
     RDKit          3D

 60 64  0  0  0  0  0  0  0  0999 V2000
    4.4587    2.8997   35.4662 C   0  0  0  0  0  0  0  0  0  0  0  0
    3.8889    1.6038   35.2330 N   0  0  0  0  0  0  0  0  0  0  0  0
    4.4116    0.2962   35.4636 C   0  0  0  0  0  0  0  0  0  0  0  0
    5.4279   -0.0585   35.9832 O   0  0  0  0  0  0  0  0  0  0  0  0
    3.5098   -0.7890   34.9697 C   0  0  0  0  0  0  0  0  0  0  0  0
    4.0793   -1.8913   34.3303 C   0  0  0  0  0  0  0  0  0  0  0  0
    3.2687   -2.9301   33.8658 C   0  0  0  0  0  0  0  0  0  0  0  0
    1.8768   -2.9119   34.0621 C   0  0  0  0  0  0  0  0  0  0  0  0
    1.0217   -4.0270   33.4797 C   0  0  0  0  0  0  0  0  0  0  0  0
   -0.1897   -3.4597   32.7067 C   0  0  0  0  0  0  0  0  0  0  0  0
   -0.5642   -4.4357   31.5960 C   0  0  0  0  0  0  0  0  0  0  0  0
   -0.6629   -5.8106   32.1336 C   0  0  0  0  0  0  0  0  0  0  0  0
   -1.1530   -6.8753   31.5370 N   0  0  0  0  0  0  0  0  0  0  0  0
   -1.1856   -7.8900   32.4628 N   0  0  0  0  0  0  0  0  0  0  0  0
   -0.7306   -7.4138   33.5961 C   0  0  0  0  0  0  0  0  0  0  0  0
   -0.7017   -7.9804   34.8158 N   0  0  0  0  0  0  0  0  0  0  0  0
   -0.2293   -6.1596   33.3885 N   0  0  0  0  0  0  0  0  0  0  0  0
    0.6387   -5.3459   34.2921 C   0  0  0  0  0  0  0  0  0  0  0  0
    1.9465   -6.1775   34.5501 C   0  0  0  0  0  0  0  0  0  0  0  0
    2.8701   -5.7731   35.7041 C   0  0  0  0  0  0  0  0  0  0  0  0
    2.1968   -5.4309   37.0300 C   0  0  0  0  0  0  0  0  0  0  0  0
    0.7737   -5.9569   37.0927 C   0  0  0  0  0  0  0  0  0  0  0  0
    0.2111   -5.9768   38.5032 C   0  0  0  0  0  0  0  0  0  0  0  0
   -0.2907   -4.8520   39.1679 C   0  0  0  0  0  0  0  0  0  0  0  0
   -0.7522   -4.9483   40.4852 C   0  0  0  0  0  0  0  0  0  0  0  0
   -0.6942   -6.1603   41.1692 C   0  0  0  0  0  0  0  0  0  0  0  0
   -0.1767   -7.2839   40.5359 C   0  0  0  0  0  0  0  0  0  0  0  0
    0.2695   -7.1931   39.2161 C   0  0  0  0  0  0  0  0  0  0  0  0
   -0.2468   -5.0492   35.9174 S   0  0  0  0  0  0  0  0  0  0  0  0
   -0.1924   -3.6395   36.2504 O   0  0  0  0  0  0  0  0  0  0  0  0
   -1.5435   -5.7071   35.9087 O   0  0  0  0  0  0  0  0  0  0  0  0
    1.3212   -1.7873   34.6882 C   0  0  0  0  0  0  0  0  0  0  0  0
    2.1264   -0.7423   35.1532 C   0  0  0  0  0  0  0  0  0  0  0  0
    3.7004    3.5372   35.9256 H   0  0  0  0  0  0  0  0  0  0  0  0
    5.3286    2.8086   36.1206 H   0  0  0  0  0  0  0  0  0  0  0  0
    4.7622    3.3215   34.5053 H   0  0  0  0  0  0  0  0  0  0  0  0
    3.0376    1.5276   34.6900 H   0  0  0  0  0  0  0  0  0  0  0  0
    5.1572   -1.9371   34.1857 H   0  0  0  0  0  0  0  0  0  0  0  0
    3.7485   -3.7534   33.3393 H   0  0  0  0  0  0  0  0  0  0  0  0
    1.6694   -4.3996   32.6661 H   0  0  0  0  0  0  0  0  0  0  0  0
    0.0374   -2.4903   32.2460 H   0  0  0  0  0  0  0  0  0  0  0  0
   -1.0369   -3.3028   33.3863 H   0  0  0  0  0  0  0  0  0  0  0  0
    0.1884   -4.4134   30.7991 H   0  0  0  0  0  0  0  0  0  0  0  0
   -1.5132   -4.1219   31.1543 H   0  0  0  0  0  0  0  0  0  0  0  0
   -1.3298   -7.5152   35.4827 H   0  0  0  0  0  0  0  0  0  0  0  0
   -1.0501   -8.9576   34.8192 H   0  0  0  0  0  0  0  0  0  0  0  0
    1.6959   -7.2294   34.7298 H   0  0  0  0  0  0  0  0  0  0  0  0
    2.5441   -6.2153   33.6289 H   0  0  0  0  0  0  0  0  0  0  0  0
    3.5325   -4.9549   35.4196 H   0  0  0  0  0  0  0  0  0  0  0  0
    3.5499   -6.6189   35.8790 H   0  0  0  0  0  0  0  0  0  0  0  0
    2.8031   -5.8448   37.8459 H   0  0  0  0  0  0  0  0  0  0  0  0
    2.2115   -4.3429   37.1732 H   0  0  0  0  0  0  0  0  0  0  0  0
    0.7521   -6.9952   36.7444 H   0  0  0  0  0  0  0  0  0  0  0  0
   -0.3387   -3.8795   38.6840 H   0  0  0  0  0  0  0  0  0  0  0  0
   -1.1621   -4.0692   40.9767 H   0  0  0  0  0  0  0  0  0  0  0  0
   -1.0588   -6.2258   42.1904 H   0  0  0  0  0  0  0  0  0  0  0  0
   -0.1331   -8.2359   41.0583 H   0  0  0  0  0  0  0  0  0  0  0  0
    0.6543   -8.0971   38.7428 H   0  0  0  0  0  0  0  0  0  0  0  0
    0.2450   -1.7034   34.8371 H   0  0  0  0  0  0  0  0  0  0  0  0
    1.6590    0.0839   35.6833 H   0  0  0  0  0  0  0  0  0  0  0  0
  1  2  1  0
  2  3  1  0
  3  4  2  0
  3  5  1  0
  5  6  2  0
  6  7  1  0
  7  8  2  0
  8  9  1  0
  9 10  1  0
 10 11  1  0
 11 12  1  0
 12 13  2  0
 13 14  1  0
 14 15  2  0
 15 16  1  0
 15 17  1  0
 17 18  1  0
 18 19  1  0
 19 20  1  0
 20 21  1  0
 21 22  1  0
 22 23  1  0
 23 24  2  0
 24 25  1  0
 25 26  2  0
 26 27  1  0
 27 28  2  0
 22 29  1  0
 29 30  2  0
 29 31  2  0
  8 32  1  0
 32 33  2  0
 33  5  1  0
 18  9  1  0
 28 23  1  0
 17 12  1  0
 29 18  1  0
  1 34  1  0
  1 35  1  0
  1 36  1  0
  2 37  1  0
  6 38  1  0
  7 39  1  0
  9 40  1  0
 10 41  1  0
 10 42  1  0
 11 43  1  0
 11 44  1  0
 16 45  1  0
 16 46  1  0
 19 47  1  0
 19 48  1  0
 20 49  1  0
 20 50  1  0
 21 51  1  0
 21 52  1  0
 22 53  1  0
 24 54  1  0
 25 55  1  0
 26 56  1  0
 27 57  1  0
 28 58  1  0
 32 59  1  0
 33 60  1  0
M  END
>  <Energy>  (120) 
59.596388790721889

>  <compound_id>  (120) 
3939

>  <target_id>  (120) 
1

>  <reference_id>  (120) 
136

>  <inspiration_ids>  (120) 
[136, 150]

>  <energy_score>  (120) 
-69.91938661417379

>  <distance_score>  (120) 
1.9955091582321336

>  <path>  (120) 
/opt/xchem-fragalysis-2/maxwin/BulkDock/SCRATCH/505735/C3939-P136/C3939-P136.minimised.mol

>  <scratch_subdir>  (120) 
/opt/xchem-fragalysis-2/maxwin/BulkDock/SCRATCH/505735/C3939-P136

>  <fragmenstein_runtime>  (120) 
5.9137489795684814

>  <fragmenstein_outcome>  (120) 
too moved

>  <fragmenstein_mode>  (120) 
expansion

>  <fragmenstein_error>  (120) 


$$$$
C3939-P150
     RDKit          3D

 60 64  0  0  0  0  0  0  0  0999 V2000
    1.6288    2.9255   36.1074 C   0  0  0  0  0  0  0  0  0  0  0  0
    1.4631    1.6203   35.5392 N   0  0  0  0  0  0  0  0  0  0  0  0
    1.0755    1.1931   34.1131 C   0  0  0  0  0  0  0  0  0  0  0  0
    0.7547    1.8326   33.1946 O   0  0  0  0  0  0  0  0  0  0  0  0
    1.1153   -0.2903   33.9770 C   0  0  0  0  0  0  0  0  0  0  0  0
    2.2104   -1.0277   34.4263 C   0  0  0  0  0  0  0  0  0  0  0  0
    2.2136   -2.4116   34.2713 C   0  0  0  0  0  0  0  0  0  0  0  0
    1.1263   -3.0845   33.6744 C   0  0  0  0  0  0  0  0  0  0  0  0
    1.2768   -4.5621   33.3986 C   0  0  0  0  0  0  0  0  0  0  0  0
    1.3075   -4.7644   31.8510 C   0  0  0  0  0  0  0  0  0  0  0  0
   -0.0234   -5.1061   31.2249 C   0  0  0  0  0  0  0  0  0  0  0  0
   -0.6084   -6.2283   31.9701 C   0  0  0  0  0  0  0  0  0  0  0  0
   -1.2498   -7.2565   31.4616 N   0  0  0  0  0  0  0  0  0  0  0  0
   -1.6087   -8.0664   32.5023 N   0  0  0  0  0  0  0  0  0  0  0  0
   -1.2172   -7.4955   33.6144 C   0  0  0  0  0  0  0  0  0  0  0  0
   -1.3665   -7.9020   34.8787 N   0  0  0  0  0  0  0  0  0  0  0  0
   -0.5030   -6.3634   33.3371 N   0  0  0  0  0  0  0  0  0  0  0  0
    0.5109   -5.7148   34.2145 C   0  0  0  0  0  0  0  0  0  0  0  0
    1.6095   -6.7924   34.5244 C   0  0  0  0  0  0  0  0  0  0  0  0
    2.6081   -6.4200   35.6200 C   0  0  0  0  0  0  0  0  0  0  0  0
    2.0465   -6.4384   37.0382 C   0  0  0  0  0  0  0  0  0  0  0  0
    0.5281   -6.4556   37.0925 C   0  0  0  0  0  0  0  0  0  0  0  0
    0.0030   -6.3938   38.5343 C   0  0  0  0  0  0  0  0  0  0  0  0
   -0.7346   -5.3457   39.1004 C   0  0  0  0  0  0  0  0  0  0  0  0
   -1.1880   -5.4149   40.4270 C   0  0  0  0  0  0  0  0  0  0  0  0
   -0.8981   -6.5208   41.2220 C   0  0  0  0  0  0  0  0  0  0  0  0
   -0.1608   -7.5690   40.6890 C   0  0  0  0  0  0  0  0  0  0  0  0
    0.2760   -7.5067   39.3627 C   0  0  0  0  0  0  0  0  0  0  0  0
   -0.1336   -5.2169   35.9655 S   0  0  0  0  0  0  0  0  0  0  0  0
    0.4522   -3.9493   36.3623 O   0  0  0  0  0  0  0  0  0  0  0  0
   -1.5647   -5.4096   36.0618 O   0  0  0  0  0  0  0  0  0  0  0  0
    0.0334   -2.3327   33.2393 C   0  0  0  0  0  0  0  0  0  0  0  0
    0.0432   -0.9405   33.3634 C   0  0  0  0  0  0  0  0  0  0  0  0
    2.6524    3.0159   36.4772 H   0  0  0  0  0  0  0  0  0  0  0  0
    0.9266    3.0351   36.9366 H   0  0  0  0  0  0  0  0  0  0  0  0
    1.4345    3.6842   35.3463 H   0  0  0  0  0  0  0  0  0  0  0  0
    1.6085    0.7964   36.1114 H   0  0  0  0  0  0  0  0  0  0  0  0
    3.0708   -0.5324   34.8677 H   0  0  0  0  0  0  0  0  0  0  0  0
    3.0921   -2.9557   34.6130 H   0  0  0  0  0  0  0  0  0  0  0  0
    2.3371   -4.7209   33.6331 H   0  0  0  0  0  0  0  0  0  0  0  0
    1.9621   -5.6095   31.6526 H   0  0  0  0  0  0  0  0  0  0  0  0
    1.7582   -3.9065   31.3360 H   0  0  0  0  0  0  0  0  0  0  0  0
    0.1274   -5.3893   30.1773 H   0  0  0  0  0  0  0  0  0  0  0  0
   -0.7102   -4.2570   31.2225 H   0  0  0  0  0  0  0  0  0  0  0  0
   -1.9162   -7.2630   35.4512 H   0  0  0  0  0  0  0  0  0  0  0  0
   -1.7237   -8.8681   34.9878 H   0  0  0  0  0  0  0  0  0  0  0  0
    1.1848   -7.7650   34.7807 H   0  0  0  0  0  0  0  0  0  0  0  0
    2.1651   -6.9585   33.6049 H   0  0  0  0  0  0  0  0  0  0  0  0
    3.0541   -5.4381   35.4338 H   0  0  0  0  0  0  0  0  0  0  0  0
    3.4484   -7.1251   35.5759 H   0  0  0  0  0  0  0  0  0  0  0  0
    2.4481   -7.3187   37.5561 H   0  0  0  0  0  0  0  0  0  0  0  0
    2.4429   -5.5731   37.5860 H   0  0  0  0  0  0  0  0  0  0  0  0
    0.1688   -7.4160   36.7130 H   0  0  0  0  0  0  0  0  0  0  0  0
   -0.9877   -4.4533   38.5319 H   0  0  0  0  0  0  0  0  0  0  0  0
   -1.7760   -4.5956   40.8351 H   0  0  0  0  0  0  0  0  0  0  0  0
   -1.2561   -6.5635   42.2468 H   0  0  0  0  0  0  0  0  0  0  0  0
    0.0603   -8.4431   41.2949 H   0  0  0  0  0  0  0  0  0  0  0  0
    0.8204   -8.3627   38.9665 H   0  0  0  0  0  0  0  0  0  0  0  0
   -0.8415   -2.7963   32.7944 H   0  0  0  0  0  0  0  0  0  0  0  0
   -0.8052   -0.3605   33.0032 H   0  0  0  0  0  0  0  0  0  0  0  0
  1  2  1  0
  2  3  1  0
  3  4  2  0
  3  5  1  0
  5  6  2  0
  6  7  1  0
  7  8  2  0
  8  9  1  0
  9 10  1  0
 10 11  1  0
 11 12  1  0
 12 13  2  0
 13 14  1  0
 14 15  2  0
 15 16  1  0
 15 17  1  0
 17 18  1  0
 18 19  1  0
 19 20  1  0
 20 21  1  0
 21 22  1  0
 22 23  1  0
 23 24  2  0
 24 25  1  0
 25 26  2  0
 26 27  1  0
 27 28  2  0
 22 29  1  0
 29 30  2  0
 29 31  2  0
  8 32  1  0
 32 33  2  0
 33  5  1  0
 18  9  1  0
 28 23  1  0
 17 12  1  0
 29 18  1  0
  1 34  1  0
  1 35  1  0
  1 36  1  0
  2 37  1  0
  6 38  1  0
  7 39  1  0
  9 40  1  0
 10 41  1  0
 10 42  1  0
 11 43  1  0
 11 44  1  0
 16 45  1  0
 16 46  1  0
 19 47  1  0
 19 48  1  0
 20 49  1  0
 20 50  1  0
 21 51  1  0
 21 52  1  0
 22 53  1  0
 24 54  1  0
 25 55  1  0
 26 56  1  0
 27 57  1  0
 28 58  1  0
 32 59  1  0
 33 60  1  0
M  END
>  <Energy>  (121) 
83.511125547401292

>  <compound_id>  (121) 
3939

>  <target_id>  (121) 
1

>  <reference_id>  (121) 
150

>  <inspiration_ids>  (121) 
[136, 150]

>  <energy_score>  (121) 
-47.90742553310713

>  <distance_score>  (121) 
1.7374962253455035

>  <path>  (121) 
/opt/xchem-fragalysis-2/maxwin/BulkDock/SCRATCH/505735/C3939-P150/C3939-P150.minimised.mol

>  <scratch_subdir>  (121) 
/opt/xchem-fragalysis-2/maxwin/BulkDock/SCRATCH/505735/C3939-P150

>  <fragmenstein_runtime>  (121) 
4.628753662109375

>  <fragmenstein_outcome>  (121) 
too moved

>  <fragmenstein_mode>  (121) 
expansion

>  <fragmenstein_error>  (121) 


$$$$
C3942-P136
     RDKit          3D

 60 65  0  0  0  0  0  0  0  0999 V2000
    3.5175   -3.8294   28.7042 C   0  0  0  0  0  0  0  0  0  0  0  0
    4.2011   -3.9456   29.8511 C   0  0  0  0  0  0  0  0  0  0  0  0
    3.8290   -3.2821   31.1495 C   0  0  0  0  0  0  0  0  0  0  0  0
    3.7439   -4.2475   32.2334 N   0  0  0  0  0  0  0  0  0  0  0  0
    4.8121   -4.6943   32.9935 C   0  0  0  0  0  0  0  0  0  0  0  0
    6.1895   -4.2268   32.9302 C   0  0  0  0  0  0  0  0  0  0  0  0
    7.2268   -5.1112   32.6248 C   0  0  0  0  0  0  0  0  0  0  0  0
    8.5403   -4.6493   32.5718 C   0  0  0  0  0  0  0  0  0  0  0  0
    8.7760   -3.3102   32.8341 C   0  0  0  0  0  0  0  0  0  0  0  0
    7.8037   -2.4278   33.1478 N   0  0  0  0  0  0  0  0  0  0  0  0
    6.5394   -2.9098   33.2103 C   0  0  0  0  0  0  0  0  0  0  0  0
    4.3882   -5.6847   33.7512 N   0  0  0  0  0  0  0  0  0  0  0  0
    3.0458   -5.8441   33.5565 N   0  0  0  0  0  0  0  0  0  0  0  0
    2.6250   -4.9004   32.7331 C   0  0  0  0  0  0  0  0  0  0  0  0
    1.1514   -4.4291   32.6627 C   0  0  0  0  0  0  0  0  0  0  0  0
    1.1500   -2.9505   33.1674 C   0  0  0  0  0  0  0  0  0  0  0  0
    1.9034   -2.6119   34.3184 C   0  0  0  0  0  0  0  0  0  0  0  0
    2.0789   -1.2871   34.7152 C   0  0  0  0  0  0  0  0  0  0  0  0
    1.4759   -0.2624   33.9885 C   0  0  0  0  0  0  0  0  0  0  0  0
    1.6991    1.1469   34.4141 C   0  0  0  0  0  0  0  0  0  0  0  0
    2.7887    1.4906   34.6387 O   0  0  0  0  0  0  0  0  0  0  0  0
    0.3792    1.9370   34.4381 N   0  0  0  0  0  0  0  0  0  0  0  0
    0.1098    3.2883   34.8339 C   0  0  0  0  0  0  0  0  0  0  0  0
    0.7239   -0.5657   32.8524 C   0  0  0  0  0  0  0  0  0  0  0  0
    0.5491   -1.8960   32.4561 C   0  0  0  0  0  0  0  0  0  0  0  0
    0.6149   -4.5147   31.1892 C   0  0  0  0  0  0  0  0  0  0  0  0
    0.5128   -5.9306   30.6292 C   0  0  0  0  0  0  0  0  0  0  0  0
   -0.2818   -6.7663   31.5404 C   0  0  0  0  0  0  0  0  0  0  0  0
   -1.0479   -7.8017   31.2818 N   0  0  0  0  0  0  0  0  0  0  0  0
   -1.5851   -8.2173   32.4829 N   0  0  0  0  0  0  0  0  0  0  0  0
   -1.1388   -7.4201   33.4340 C   0  0  0  0  0  0  0  0  0  0  0  0
   -1.3179   -7.3538   34.8387 C   0  0  0  0  0  0  0  0  0  0  0  0
   -0.7864   -6.3209   35.5220 C   0  0  0  0  0  0  0  0  0  0  0  0
   -0.0148   -5.2726   34.8598 C   0  0  0  0  0  0  0  0  0  0  0  0
    0.2429   -5.3608   33.5337 C   0  0  0  0  0  0  0  0  0  0  0  0
   -0.3398   -6.4523   32.8693 N   0  0  0  0  0  0  0  0  0  0  0  0
    3.8627   -4.3278   27.8021 H   0  0  0  0  0  0  0  0  0  0  0  0
    2.6179   -3.2257   28.6222 H   0  0  0  0  0  0  0  0  0  0  0  0
    5.1124   -4.5427   29.8506 H   0  0  0  0  0  0  0  0  0  0  0  0
    4.5827   -2.5338   31.4059 H   0  0  0  0  0  0  0  0  0  0  0  0
    2.8873   -2.7406   31.0715 H   0  0  0  0  0  0  0  0  0  0  0  0
    7.0188   -6.1621   32.4381 H   0  0  0  0  0  0  0  0  0  0  0  0
    9.3602   -5.3202   32.3402 H   0  0  0  0  0  0  0  0  0  0  0  0
    9.7824   -2.9014   32.8065 H   0  0  0  0  0  0  0  0  0  0  0  0
    5.7963   -2.1744   33.5097 H   0  0  0  0  0  0  0  0  0  0  0  0
    2.4009   -3.3830   34.9098 H   0  0  0  0  0  0  0  0  0  0  0  0
    2.6837   -1.0543   35.5897 H   0  0  0  0  0  0  0  0  0  0  0  0
   -0.3745    1.3460   34.1093 H   0  0  0  0  0  0  0  0  0  0  0  0
   -0.6251    3.2738   35.6416 H   0  0  0  0  0  0  0  0  0  0  0  0
    1.0335    3.7624   35.1724 H   0  0  0  0  0  0  0  0  0  0  0  0
   -0.2971    3.8267   33.9753 H   0  0  0  0  0  0  0  0  0  0  0  0
    0.2859    0.2283   32.2510 H   0  0  0  0  0  0  0  0  0  0  0  0
   -0.0415   -2.0615   31.5589 H   0  0  0  0  0  0  0  0  0  0  0  0
   -0.4027   -4.0966   31.1534 H   0  0  0  0  0  0  0  0  0  0  0  0
    1.2060   -3.9122   30.4973 H   0  0  0  0  0  0  0  0  0  0  0  0
    1.5067   -6.3518   30.4786 H   0  0  0  0  0  0  0  0  0  0  0  0
    0.0222   -5.8859   29.6563 H   0  0  0  0  0  0  0  0  0  0  0  0
   -1.8516   -8.1543   35.3380 H   0  0  0  0  0  0  0  0  0  0  0  0
   -0.8919   -6.2640   36.6019 H   0  0  0  0  0  0  0  0  0  0  0  0
    0.3792   -4.4912   35.4978 H   0  0  0  0  0  0  0  0  0  0  0  0
  1  2  2  0
  2  3  1  0
  3  4  1  0
  4  5  1  0
  5  6  1  0
  6  7  2  0
  7  8  1  0
  8  9  2  0
  9 10  1  0
 10 11  2  0
  5 12  2  0
 12 13  1  0
 13 14  2  0
 14 15  1  0
 15 16  1  0
 16 17  2  0
 17 18  1  0
 18 19  2  0
 19 20  1  0
 20 21  2  0
 20 22  1  0
 22 23  1  0
 19 24  1  0
 24 25  2  0
 15 26  1  0
 26 27  1  0
 27 28  1  0
 28 29  2  0
 29 30  1  0
 30 31  2  0
 31 32  1  0
 32 33  2  0
 33 34  1  0
 34 35  2  0
 35 36  1  0
 14  4  1  0
 35 15  1  0
 11  6  1  0
 25 16  1  0
 36 28  1  0
 36 31  1  0
  1 37  1  0
  1 38  1  0
  2 39  1  0
  3 40  1  0
  3 41  1  0
  7 42  1  0
  8 43  1  0
  9 44  1  0
 11 45  1  0
 17 46  1  0
 18 47  1  0
 22 48  1  0
 23 49  1  0
 23 50  1  0
 23 51  1  0
 24 52  1  0
 25 53  1  0
 26 54  1  0
 26 55  1  0
 27 56  1  0
 27 57  1  0
 32 58  1  0
 33 59  1  0
 34 60  1  0
M  END
>  <Energy>  (122) 
122.80703897523138

>  <compound_id>  (122) 
3942

>  <target_id>  (122) 
1

>  <reference_id>  (122) 
136

>  <inspiration_ids>  (122) 
[136, 158]

>  <energy_score>  (122) 
-33.00793409622537

>  <distance_score>  (122) 
1.3882657434600818

>  <path>  (122) 
/opt/xchem-fragalysis-2/maxwin/BulkDock/SCRATCH/505735/C3942-P136/C3942-P136.minimised.mol

>  <scratch_subdir>  (122) 
/opt/xchem-fragalysis-2/maxwin/BulkDock/SCRATCH/505735/C3942-P136

>  <fragmenstein_runtime>  (122) 
4.005034923553467

>  <fragmenstein_outcome>  (122) 
too moved

>  <fragmenstein_mode>  (122) 
expansion

>  <fragmenstein_error>  (122) 


$$$$
C3942-P158
     RDKit          3D

 60 65  0  0  0  0  0  0  0  0999 V2000
    2.6366   -2.1419   28.8504 C   0  0  0  0  0  0  0  0  0  0  0  0
    3.4700   -2.4598   29.8508 C   0  0  0  0  0  0  0  0  0  0  0  0
    3.2103   -2.1841   31.3071 C   0  0  0  0  0  0  0  0  0  0  0  0
    3.3626   -3.3770   32.1284 N   0  0  0  0  0  0  0  0  0  0  0  0
    4.5718   -3.9311   32.5161 C   0  0  0  0  0  0  0  0  0  0  0  0
    5.9055   -3.4494   32.1867 C   0  0  0  0  0  0  0  0  0  0  0  0
    6.7930   -4.2612   31.4756 C   0  0  0  0  0  0  0  0  0  0  0  0
    8.0683   -3.7921   31.1684 C   0  0  0  0  0  0  0  0  0  0  0  0
    8.4191   -2.5207   31.5907 C   0  0  0  0  0  0  0  0  0  0  0  0
    7.5967   -1.7124   32.2935 N   0  0  0  0  0  0  0  0  0  0  0  0
    6.3701   -2.2031   32.5924 C   0  0  0  0  0  0  0  0  0  0  0  0
    4.3246   -5.0282   33.1990 N   0  0  0  0  0  0  0  0  0  0  0  0
    2.9748   -5.1813   33.3088 N   0  0  0  0  0  0  0  0  0  0  0  0
    2.3803   -4.1733   32.6988 C   0  0  0  0  0  0  0  0  0  0  0  0
    0.8608   -3.9112   32.7771 C   0  0  0  0  0  0  0  0  0  0  0  0
    0.6353   -2.5364   33.4775 C   0  0  0  0  0  0  0  0  0  0  0  0
    1.4383   -2.1716   34.5853 C   0  0  0  0  0  0  0  0  0  0  0  0
    1.3181   -0.9221   35.1958 C   0  0  0  0  0  0  0  0  0  0  0  0
    0.3705   -0.0123   34.7302 C   0  0  0  0  0  0  0  0  0  0  0  0
    0.2726    1.3219   35.3850 C   0  0  0  0  0  0  0  0  0  0  0  0
    1.2961    1.9231   35.5204 O   0  0  0  0  0  0  0  0  0  0  0  0
   -1.0642    1.6628   35.7475 N   0  0  0  0  0  0  0  0  0  0  0  0
   -1.6110    2.8686   36.3006 C   0  0  0  0  0  0  0  0  0  0  0  0
   -0.4389   -0.3466   33.6425 C   0  0  0  0  0  0  0  0  0  0  0  0
   -0.3160   -1.6001   33.0324 C   0  0  0  0  0  0  0  0  0  0  0  0
    0.2687   -3.9222   31.3164 C   0  0  0  0  0  0  0  0  0  0  0  0
    0.4093   -5.2733   30.6034 C   0  0  0  0  0  0  0  0  0  0  0  0
   -0.2206   -6.3189   31.4335 C   0  0  0  0  0  0  0  0  0  0  0  0
   -0.8251   -7.4314   31.0791 N   0  0  0  0  0  0  0  0  0  0  0  0
   -1.2969   -8.0294   32.2325 N   0  0  0  0  0  0  0  0  0  0  0  0
   -0.9684   -7.2641   33.2554 C   0  0  0  0  0  0  0  0  0  0  0  0
   -1.1596   -7.3498   34.6580 C   0  0  0  0  0  0  0  0  0  0  0  0
   -0.7339   -6.3394   35.4416 C   0  0  0  0  0  0  0  0  0  0  0  0
   -0.0885   -5.1504   34.8895 C   0  0  0  0  0  0  0  0  0  0  0  0
    0.1431   -5.0649   33.5585 C   0  0  0  0  0  0  0  0  0  0  0  0
   -0.3007   -6.1513   32.7890 N   0  0  0  0  0  0  0  0  0  0  0  0
    2.9008   -2.3508   27.8171 H   0  0  0  0  0  0  0  0  0  0  0  0
    1.6825   -1.6495   29.0180 H   0  0  0  0  0  0  0  0  0  0  0  0
    4.4226   -2.9213   29.5952 H   0  0  0  0  0  0  0  0  0  0  0  0
    3.9129   -1.4308   31.6734 H   0  0  0  0  0  0  0  0  0  0  0  0
    2.2163   -1.7644   31.4626 H   0  0  0  0  0  0  0  0  0  0  0  0
    6.4988   -5.2626   31.1692 H   0  0  0  0  0  0  0  0  0  0  0  0
    8.7736   -4.4078   30.6210 H   0  0  0  0  0  0  0  0  0  0  0  0
    9.4020   -2.1099   31.3766 H   0  0  0  0  0  0  0  0  0  0  0  0
    5.7599   -1.5376   33.1977 H   0  0  0  0  0  0  0  0  0  0  0  0
    2.1817   -2.8614   34.9884 H   0  0  0  0  0  0  0  0  0  0  0  0
    1.9602   -0.6603   36.0347 H   0  0  0  0  0  0  0  0  0  0  0  0
   -1.6921    0.9462   35.4041 H   0  0  0  0  0  0  0  0  0  0  0  0
   -2.3021    2.6028   37.1032 H   0  0  0  0  0  0  0  0  0  0  0  0
   -0.8047    3.4983   36.6835 H   0  0  0  0  0  0  0  0  0  0  0  0
   -2.1491    3.3975   35.5105 H   0  0  0  0  0  0  0  0  0  0  0  0
   -1.1547    0.3693   33.2440 H   0  0  0  0  0  0  0  0  0  0  0  0
   -0.9769   -1.8006   32.1936 H   0  0  0  0  0  0  0  0  0  0  0  0
   -0.8079   -3.7005   31.3536 H   0  0  0  0  0  0  0  0  0  0  0  0
    0.7068   -3.1439   30.6904 H   0  0  0  0  0  0  0  0  0  0  0  0
    1.4585   -5.5150   30.4136 H   0  0  0  0  0  0  0  0  0  0  0  0
   -0.0914   -5.2142   29.6333 H   0  0  0  0  0  0  0  0  0  0  0  0
   -1.6265   -8.2340   35.0776 H   0  0  0  0  0  0  0  0  0  0  0  0
   -0.8557   -6.3934   36.5201 H   0  0  0  0  0  0  0  0  0  0  0  0
    0.2075   -4.3856   35.5980 H   0  0  0  0  0  0  0  0  0  0  0  0
  1  2  2  0
  2  3  1  0
  3  4  1  0
  4  5  1  0
  5  6  1  0
  6  7  2  0
  7  8  1  0
  8  9  2  0
  9 10  1  0
 10 11  2  0
  5 12  2  0
 12 13  1  0
 13 14  2  0
 14 15  1  0
 15 16  1  0
 16 17  2  0
 17 18  1  0
 18 19  2  0
 19 20  1  0
 20 21  2  0
 20 22  1  0
 22 23  1  0
 19 24  1  0
 24 25  2  0
 15 26  1  0
 26 27  1  0
 27 28  1  0
 28 29  2  0
 29 30  1  0
 30 31  2  0
 31 32  1  0
 32 33  2  0
 33 34  1  0
 34 35  2  0
 35 36  1  0
 14  4  1  0
 35 15  1  0
 11  6  1  0
 25 16  1  0
 36 28  1  0
 36 31  1  0
  1 37  1  0
  1 38  1  0
  2 39  1  0
  3 40  1  0
  3 41  1  0
  7 42  1  0
  8 43  1  0
  9 44  1  0
 11 45  1  0
 17 46  1  0
 18 47  1  0
 22 48  1  0
 23 49  1  0
 23 50  1  0
 23 51  1  0
 24 52  1  0
 25 53  1  0
 26 54  1  0
 26 55  1  0
 27 56  1  0
 27 57  1  0
 32 58  1  0
 33 59  1  0
 34 60  1  0
M  END
>  <Energy>  (123) 
107.75565588689206

>  <compound_id>  (123) 
3942

>  <target_id>  (123) 
1

>  <reference_id>  (123) 
158

>  <inspiration_ids>  (123) 
[136, 158]

>  <energy_score>  (123) 
-45.79096676370037

>  <distance_score>  (123) 
2.1112982037487846

>  <path>  (123) 
/opt/xchem-fragalysis-2/maxwin/BulkDock/SCRATCH/505735/C3942-P158/C3942-P158.minimised.mol

>  <scratch_subdir>  (123) 
/opt/xchem-fragalysis-2/maxwin/BulkDock/SCRATCH/505735/C3942-P158

>  <fragmenstein_runtime>  (123) 
6.782726287841797

>  <fragmenstein_outcome>  (123) 
too moved

>  <fragmenstein_mode>  (123) 
expansion

>  <fragmenstein_error>  (123) 


$$$$
C3944-P136
     RDKit          3D

 45 48  0  0  0  0  0  0  0  0999 V2000
    4.3868    2.6355   32.7750 C   0  0  0  0  0  0  0  0  0  0  0  0
    3.6596    1.4002   32.7910 N   0  0  0  0  0  0  0  0  0  0  0  0
    3.1494    0.5554   33.9725 C   0  0  0  0  0  0  0  0  0  0  0  0
    3.1718    0.7676   35.1173 O   0  0  0  0  0  0  0  0  0  0  0  0
    2.5413   -0.7261   33.4973 C   0  0  0  0  0  0  0  0  0  0  0  0
    2.7735   -1.8912   34.2367 C   0  0  0  0  0  0  0  0  0  0  0  0
    2.2273   -3.1069   33.8188 C   0  0  0  0  0  0  0  0  0  0  0  0
    1.4298   -3.1678   32.6679 C   0  0  0  0  0  0  0  0  0  0  0  0
    0.8757   -4.4488   32.2019 C   0  0  0  0  0  0  0  0  0  0  0  0
    1.1761   -5.0068   30.8860 C   0  0  0  0  0  0  0  0  0  0  0  0
    0.6408   -6.1672   30.4712 C   0  0  0  0  0  0  0  0  0  0  0  0
   -0.2385   -6.8858   31.3167 C   0  0  0  0  0  0  0  0  0  0  0  0
   -0.9508   -7.9749   31.1409 N   0  0  0  0  0  0  0  0  0  0  0  0
   -1.5434   -8.2687   32.3442 N   0  0  0  0  0  0  0  0  0  0  0  0
   -1.1637   -7.3763   33.2386 C   0  0  0  0  0  0  0  0  0  0  0  0
   -1.4351   -7.4286   34.5792 N   0  0  0  0  0  0  0  0  0  0  0  0
   -0.2973   -7.4904   35.5049 C   0  0  0  0  0  0  0  0  0  0  0  0
    0.0402   -6.1973   36.2003 C   0  0  0  0  0  0  0  0  0  0  0  0
   -0.9130   -5.2166   36.4795 C   0  0  0  0  0  0  0  0  0  0  0  0
   -0.5283   -4.0798   37.1726 C   0  0  0  0  0  0  0  0  0  0  0  0
    0.7255   -3.8667   37.6238 N   0  0  0  0  0  0  0  0  0  0  0  0
    1.6283   -4.8362   37.3826 C   0  0  0  0  0  0  0  0  0  0  0  0
    1.3389   -6.0006   36.6880 C   0  0  0  0  0  0  0  0  0  0  0  0
   -0.4330   -6.3912   32.5980 N   0  0  0  0  0  0  0  0  0  0  0  0
    0.0749   -5.1647   33.0168 C   0  0  0  0  0  0  0  0  0  0  0  0
    1.1797   -1.9943   31.9451 C   0  0  0  0  0  0  0  0  0  0  0  0
    1.7256   -0.7764   32.3609 C   0  0  0  0  0  0  0  0  0  0  0  0
    4.3537    3.0916   33.7667 H   0  0  0  0  0  0  0  0  0  0  0  0
    3.9352    3.2979   32.0337 H   0  0  0  0  0  0  0  0  0  0  0  0
    5.4223    2.4235   32.4996 H   0  0  0  0  0  0  0  0  0  0  0  0
    3.5540    0.8768   31.9311 H   0  0  0  0  0  0  0  0  0  0  0  0
    3.3755   -1.8506   35.1425 H   0  0  0  0  0  0  0  0  0  0  0  0
    2.4266   -4.0005   34.4041 H   0  0  0  0  0  0  0  0  0  0  0  0
    1.8665   -4.4640   30.2458 H   0  0  0  0  0  0  0  0  0  0  0  0
    0.9102   -6.5844   29.5158 H   0  0  0  0  0  0  0  0  0  0  0  0
   -1.9435   -8.3105   34.7366 H   0  0  0  0  0  0  0  0  0  0  0  0
    0.5936   -7.8679   34.9889 H   0  0  0  0  0  0  0  0  0  0  0  0
   -0.5392   -8.2149   36.2907 H   0  0  0  0  0  0  0  0  0  0  0  0
   -1.9363   -5.3196   36.1432 H   0  0  0  0  0  0  0  0  0  0  0  0
   -1.2419   -3.2893   37.3885 H   0  0  0  0  0  0  0  0  0  0  0  0
    2.6222   -4.6492   37.7785 H   0  0  0  0  0  0  0  0  0  0  0  0
    2.1144   -6.7458   36.5473 H   0  0  0  0  0  0  0  0  0  0  0  0
   -0.2200   -4.8166   33.9933 H   0  0  0  0  0  0  0  0  0  0  0  0
    0.5415   -2.0150   31.0631 H   0  0  0  0  0  0  0  0  0  0  0  0
    1.4786    0.1270   31.8092 H   0  0  0  0  0  0  0  0  0  0  0  0
  1  2  1  0
  2  3  1  0
  3  4  2  0
  3  5  1  0
  5  6  2  0
  6  7  1  0
  7  8  2  0
  8  9  1  0
  9 10  1  0
 10 11  2  0
 11 12  1  0
 12 13  2  0
 13 14  1  0
 14 15  2  0
 15 16  1  0
 16 17  1  0
 17 18  1  0
 18 19  2  0
 19 20  1  0
 20 21  2  0
 21 22  1  0
 22 23  2  0
 15 24  1  0
 24 25  1  0
  8 26  1  0
 26 27  2  0
 27  5  1  0
 25  9  2  0
 24 12  1  0
 23 18  1  0
  1 28  1  0
  1 29  1  0
  1 30  1  0
  2 31  1  0
  6 32  1  0
  7 33  1  0
 10 34  1  0
 11 35  1  0
 16 36  1  0
 17 37  1  0
 17 38  1  0
 19 39  1  0
 20 40  1  0
 22 41  1  0
 23 42  1  0
 25 43  1  0
 26 44  1  0
 27 45  1  0
M  END
>  <Energy>  (124) 
77.43354754673679

>  <compound_id>  (124) 
3944

>  <target_id>  (124) 
1

>  <reference_id>  (124) 
136

>  <inspiration_ids>  (124) 
[136, 162]

>  <energy_score>  (124) 
-10.12545435152822

>  <distance_score>  (124) 
1.798408901107762

>  <path>  (124) 
/opt/xchem-fragalysis-2/maxwin/BulkDock/SCRATCH/505735/C3944-P136/C3944-P136.minimised.mol

>  <scratch_subdir>  (124) 
/opt/xchem-fragalysis-2/maxwin/BulkDock/SCRATCH/505735/C3944-P136

>  <fragmenstein_runtime>  (124) 
2.9650461673736572

>  <fragmenstein_outcome>  (124) 
too moved

>  <fragmenstein_mode>  (124) 
expansion

>  <fragmenstein_error>  (124) 


$$$$
C3944-P162
     RDKit          3D

 45 48  0  0  0  0  0  0  0  0999 V2000
    4.1968    2.7286   32.8262 C   0  0  0  0  0  0  0  0  0  0  0  0
    3.6152    1.4190   32.8573 N   0  0  0  0  0  0  0  0  0  0  0  0
    3.0482    0.6043   34.0341 C   0  0  0  0  0  0  0  0  0  0  0  0
    3.0336    0.8365   35.1751 O   0  0  0  0  0  0  0  0  0  0  0  0
    2.4711   -0.6917   33.5619 C   0  0  0  0  0  0  0  0  0  0  0  0
    2.6980   -1.8443   34.3213 C   0  0  0  0  0  0  0  0  0  0  0  0
    2.1728   -3.0703   33.9067 C   0  0  0  0  0  0  0  0  0  0  0  0
    1.4007   -3.1548   32.7405 C   0  0  0  0  0  0  0  0  0  0  0  0
    0.8713   -4.4477   32.2771 C   0  0  0  0  0  0  0  0  0  0  0  0
    1.1732   -4.9886   30.9540 C   0  0  0  0  0  0  0  0  0  0  0  0
    0.6607   -6.1564   30.5335 C   0  0  0  0  0  0  0  0  0  0  0  0
   -0.1974   -6.8997   31.3798 C   0  0  0  0  0  0  0  0  0  0  0  0
   -0.8975   -7.9956   31.1975 N   0  0  0  0  0  0  0  0  0  0  0  0
   -1.4691   -8.3187   32.4042 N   0  0  0  0  0  0  0  0  0  0  0  0
   -1.0954   -7.4297   33.3036 C   0  0  0  0  0  0  0  0  0  0  0  0
   -1.3667   -7.4868   34.6417 N   0  0  0  0  0  0  0  0  0  0  0  0
   -0.2333   -7.6694   35.5546 C   0  0  0  0  0  0  0  0  0  0  0  0
    0.2835   -6.4147   36.2079 C   0  0  0  0  0  0  0  0  0  0  0  0
   -0.5555   -5.3698   36.5962 C   0  0  0  0  0  0  0  0  0  0  0  0
   -0.0114   -4.2782   37.2544 C   0  0  0  0  0  0  0  0  0  0  0  0
    1.2964   -4.1704   37.5722 N   0  0  0  0  0  0  0  0  0  0  0  0
    2.0880   -5.2062   37.2347 C   0  0  0  0  0  0  0  0  0  0  0  0
    1.6367   -6.3308   36.5616 C   0  0  0  0  0  0  0  0  0  0  0  0
   -0.3874   -6.4245   32.6686 N   0  0  0  0  0  0  0  0  0  0  0  0
    0.0961   -5.1903   33.0938 C   0  0  0  0  0  0  0  0  0  0  0  0
    1.1574   -1.9927   31.9963 C   0  0  0  0  0  0  0  0  0  0  0  0
    1.6838   -0.7645   32.4070 C   0  0  0  0  0  0  0  0  0  0  0  0
    5.2178    2.6464   32.4475 H   0  0  0  0  0  0  0  0  0  0  0  0
    3.6048    3.3556   32.1560 H   0  0  0  0  0  0  0  0  0  0  0  0
    4.2011    3.1520   33.8328 H   0  0  0  0  0  0  0  0  0  0  0  0
    3.5309    0.8823   32.0032 H   0  0  0  0  0  0  0  0  0  0  0  0
    3.2770   -1.7875   35.2413 H   0  0  0  0  0  0  0  0  0  0  0  0
    2.3674   -3.9530   34.5097 H   0  0  0  0  0  0  0  0  0  0  0  0
    1.8443   -4.4238   30.3122 H   0  0  0  0  0  0  0  0  0  0  0  0
    0.9300   -6.5551   29.5704 H   0  0  0  0  0  0  0  0  0  0  0  0
   -1.9537   -8.3155   34.7888 H   0  0  0  0  0  0  0  0  0  0  0  0
    0.5913   -8.1666   35.0324 H   0  0  0  0  0  0  0  0  0  0  0  0
   -0.5481   -8.3421   36.3609 H   0  0  0  0  0  0  0  0  0  0  0  0
   -1.6135   -5.3922   36.3699 H   0  0  0  0  0  0  0  0  0  0  0  0
   -0.6339   -3.4393   37.5530 H   0  0  0  0  0  0  0  0  0  0  0  0
    3.1281   -5.1079   37.5314 H   0  0  0  0  0  0  0  0  0  0  0  0
    2.3298   -7.1352   36.3403 H   0  0  0  0  0  0  0  0  0  0  0  0
   -0.2028   -4.8611   34.0764 H   0  0  0  0  0  0  0  0  0  0  0  0
    0.5392   -2.0299   31.1008 H   0  0  0  0  0  0  0  0  0  0  0  0
    1.4430    0.1296   31.8376 H   0  0  0  0  0  0  0  0  0  0  0  0
  1  2  1  0
  2  3  1  0
  3  4  2  0
  3  5  1  0
  5  6  2  0
  6  7  1  0
  7  8  2  0
  8  9  1  0
  9 10  1  0
 10 11  2  0
 11 12  1  0
 12 13  2  0
 13 14  1  0
 14 15  2  0
 15 16  1  0
 16 17  1  0
 17 18  1  0
 18 19  2  0
 19 20  1  0
 20 21  2  0
 21 22  1  0
 22 23  2  0
 15 24  1  0
 24 25  1  0
  8 26  1  0
 26 27  2  0
 27  5  1  0
 25  9  2  0
 24 12  1  0
 23 18  1  0
  1 28  1  0
  1 29  1  0
  1 30  1  0
  2 31  1  0
  6 32  1  0
  7 33  1  0
 10 34  1  0
 11 35  1  0
 16 36  1  0
 17 37  1  0
 17 38  1  0
 19 39  1  0
 20 40  1  0
 22 41  1  0
 23 42  1  0
 25 43  1  0
 26 44  1  0
 27 45  1  0
M  END
>  <Energy>  (125) 
76.699770856513467

>  <compound_id>  (125) 
3944

>  <target_id>  (125) 
1

>  <reference_id>  (125) 
162

>  <inspiration_ids>  (125) 
[136, 162]

>  <energy_score>  (125) 
-10.85923104175211

>  <distance_score>  (125) 
1.814797771772302

>  <path>  (125) 
/opt/xchem-fragalysis-2/maxwin/BulkDock/SCRATCH/505735/C3944-P162/C3944-P162.minimised.mol

>  <scratch_subdir>  (125) 
/opt/xchem-fragalysis-2/maxwin/BulkDock/SCRATCH/505735/C3944-P162

>  <fragmenstein_runtime>  (125) 
2.6107375621795654

>  <fragmenstein_outcome>  (125) 
too moved

>  <fragmenstein_mode>  (125) 
expansion

>  <fragmenstein_error>  (125) 


$$$$
C3945-P136
     RDKit          3D

 46 50  0  0  0  0  0  0  0  0999 V2000
    5.1443    2.1449   34.1736 C   0  0  0  0  0  0  0  0  0  0  0  0
    4.4126    0.9193   34.0298 N   0  0  0  0  0  0  0  0  0  0  0  0
    4.3797   -0.2525   34.8438 C   0  0  0  0  0  0  0  0  0  0  0  0
    4.8928   -0.4862   35.8978 O   0  0  0  0  0  0  0  0  0  0  0  0
    3.5494   -1.3501   34.2564 C   0  0  0  0  0  0  0  0  0  0  0  0
    4.0070   -2.6691   34.3744 C   0  0  0  0  0  0  0  0  0  0  0  0
    3.2559   -3.7271   33.8554 C   0  0  0  0  0  0  0  0  0  0  0  0
    2.0304   -3.4770   33.2306 C   0  0  0  0  0  0  0  0  0  0  0  0
    1.2127   -4.5767   32.6659 C   0  0  0  0  0  0  0  0  0  0  0  0
    1.1062   -4.6742   31.2058 C   0  0  0  0  0  0  0  0  0  0  0  0
    0.3709   -5.6143   30.5984 C   0  0  0  0  0  0  0  0  0  0  0  0
   -0.3320   -6.5613   31.3736 C   0  0  0  0  0  0  0  0  0  0  0  0
   -1.0798   -7.5802   31.0191 N   0  0  0  0  0  0  0  0  0  0  0  0
   -1.5407   -8.1658   32.1642 N   0  0  0  0  0  0  0  0  0  0  0  0
   -1.0782   -7.4989   33.2006 C   0  0  0  0  0  0  0  0  0  0  0  0
   -1.3255   -7.7883   34.5010 N   0  0  0  0  0  0  0  0  0  0  0  0
   -0.2666   -6.4538   32.7613 N   0  0  0  0  0  0  0  0  0  0  0  0
    0.5095   -5.4681   33.4253 C   0  0  0  0  0  0  0  0  0  0  0  0
    0.5622   -5.4702   35.1772 S   0  0  0  0  0  0  0  0  0  0  0  0
   -0.5261   -4.1472   35.6104 C   0  0  0  0  0  0  0  0  0  0  0  0
   -0.8611   -3.2879   34.7047 N   0  0  0  0  0  0  0  0  0  0  0  0
   -1.6674   -2.2168   35.0470 C   0  0  0  0  0  0  0  0  0  0  0  0
   -1.9653   -1.3483   34.2344 O   0  0  0  0  0  0  0  0  0  0  0  0
   -2.0568   -2.1965   36.4406 C   0  0  0  0  0  0  0  0  0  0  0  0
   -3.0432   -1.0086   37.1464 S   0  0  0  0  0  0  0  0  0  0  0  0
   -2.9419   -1.7735   38.6836 C   0  0  0  0  0  0  0  0  0  0  0  0
   -2.1642   -2.9150   38.6488 C   0  0  0  0  0  0  0  0  0  0  0  0
   -1.6624   -3.1436   37.3475 C   0  0  0  0  0  0  0  0  0  0  0  0
   -0.8820   -4.1566   36.9372 N   0  0  0  0  0  0  0  0  0  0  0  0
    1.5776   -2.1535   33.1110 C   0  0  0  0  0  0  0  0  0  0  0  0
    2.3226   -1.0948   33.6339 C   0  0  0  0  0  0  0  0  0  0  0  0
    4.4715    2.9797   33.9666 H   0  0  0  0  0  0  0  0  0  0  0  0
    5.5448    2.2194   35.1872 H   0  0  0  0  0  0  0  0  0  0  0  0
    5.9643    2.1444   33.4519 H   0  0  0  0  0  0  0  0  0  0  0  0
    3.9288    0.7306   33.1604 H   0  0  0  0  0  0  0  0  0  0  0  0
    4.9517   -2.8715   34.8755 H   0  0  0  0  0  0  0  0  0  0  0  0
    3.6324   -4.7422   33.9515 H   0  0  0  0  0  0  0  0  0  0  0  0
    1.6316   -3.9334   30.6071 H   0  0  0  0  0  0  0  0  0  0  0  0
    0.2874   -5.6455   29.5219 H   0  0  0  0  0  0  0  0  0  0  0  0
   -1.5745   -8.7807   34.6550 H   0  0  0  0  0  0  0  0  0  0  0  0
   -0.6281   -7.5252   35.1892 H   0  0  0  0  0  0  0  0  0  0  0  0
   -3.4590   -1.3498   39.5339 H   0  0  0  0  0  0  0  0  0  0  0  0
   -1.9920   -3.5419   39.5153 H   0  0  0  0  0  0  0  0  0  0  0  0
   -0.5363   -4.8983   37.5325 H   0  0  0  0  0  0  0  0  0  0  0  0
    0.6156   -1.9421   32.6428 H   0  0  0  0  0  0  0  0  0  0  0  0
    1.9148   -0.0887   33.5789 H   0  0  0  0  0  0  0  0  0  0  0  0
  1  2  1  0
  2  3  1  0
  3  4  2  0
  3  5  1  0
  5  6  2  0
  6  7  1  0
  7  8  2  0
  8  9  1  0
  9 10  1  0
 10 11  2  0
 11 12  1  0
 12 13  2  0
 13 14  1  0
 14 15  2  0
 15 16  1  0
 15 17  1  0
 17 18  1  0
 18 19  1  0
 19 20  1  0
 20 21  2  0
 21 22  1  0
 22 23  2  0
 22 24  1  0
 24 25  1  0
 25 26  1  0
 26 27  2  0
 27 28  1  0
 28 29  1  0
  8 30  1  0
 30 31  2  0
 31  5  1  0
 18  9  2  0
 29 20  1  0
 17 12  1  0
 28 24  2  0
  1 32  1  0
  1 33  1  0
  1 34  1  0
  2 35  1  0
  6 36  1  0
  7 37  1  0
 10 38  1  0
 11 39  1  0
 16 40  1  0
 16 41  1  0
 26 42  1  0
 27 43  1  0
 29 44  1  0
 30 45  1  0
 31 46  1  0
M  END
>  <Energy>  (126) 
10.159728062632706

>  <compound_id>  (126) 
3945

>  <target_id>  (126) 
1

>  <reference_id>  (126) 
136

>  <inspiration_ids>  (126) 
[136, 163]

>  <energy_score>  (126) 
-67.31481165391568

>  <distance_score>  (126) 
1.931308372276779

>  <path>  (126) 
/opt/xchem-fragalysis-2/maxwin/BulkDock/SCRATCH/505735/C3945-P136/C3945-P136.minimised.mol

>  <scratch_subdir>  (126) 
/opt/xchem-fragalysis-2/maxwin/BulkDock/SCRATCH/505735/C3945-P136

>  <fragmenstein_runtime>  (126) 
9.180848836898804

>  <fragmenstein_outcome>  (126) 
too moved

>  <fragmenstein_mode>  (126) 
expansion

>  <fragmenstein_error>  (126) 


$$$$
C3945-P163
     RDKit          3D

 46 50  0  0  0  0  0  0  0  0999 V2000
    2.8066    3.1855   32.8425 C   0  0  0  0  0  0  0  0  0  0  0  0
    2.5212    1.7821   32.8951 N   0  0  0  0  0  0  0  0  0  0  0  0
    2.5669    0.7958   34.0765 C   0  0  0  0  0  0  0  0  0  0  0  0
    2.9172    0.9511   35.1761 O   0  0  0  0  0  0  0  0  0  0  0  0
    2.1067   -0.5643   33.6591 C   0  0  0  0  0  0  0  0  0  0  0  0
    2.7996   -1.6846   34.1332 C   0  0  0  0  0  0  0  0  0  0  0  0
    2.4045   -2.9680   33.7485 C   0  0  0  0  0  0  0  0  0  0  0  0
    1.2995   -3.1425   32.9142 C   0  0  0  0  0  0  0  0  0  0  0  0
    0.8755   -4.4771   32.4514 C   0  0  0  0  0  0  0  0  0  0  0  0
    1.1453   -4.8416   31.0561 C   0  0  0  0  0  0  0  0  0  0  0  0
    0.6246   -5.9352   30.4841 C   0  0  0  0  0  0  0  0  0  0  0  0
   -0.1985   -6.7930   31.2434 C   0  0  0  0  0  0  0  0  0  0  0  0
   -0.8738   -7.8742   30.9260 N   0  0  0  0  0  0  0  0  0  0  0  0
   -1.3952   -8.3837   32.0850 N   0  0  0  0  0  0  0  0  0  0  0  0
   -1.0534   -7.5950   33.0782 C   0  0  0  0  0  0  0  0  0  0  0  0
   -1.2251   -7.8243   34.3991 N   0  0  0  0  0  0  0  0  0  0  0  0
   -0.3566   -6.5021   32.5931 N   0  0  0  0  0  0  0  0  0  0  0  0
    0.1600   -5.3452   33.2175 C   0  0  0  0  0  0  0  0  0  0  0  0
   -0.2793   -5.0276   34.8809 S   0  0  0  0  0  0  0  0  0  0  0  0
    1.1661   -5.4601   35.7700 C   0  0  0  0  0  0  0  0  0  0  0  0
    1.5811   -4.5755   36.6170 N   0  0  0  0  0  0  0  0  0  0  0  0
    2.7380   -4.8030   37.3367 C   0  0  0  0  0  0  0  0  0  0  0  0
    3.1437   -4.0224   38.1880 O   0  0  0  0  0  0  0  0  0  0  0  0
    3.4205   -6.0208   36.9601 C   0  0  0  0  0  0  0  0  0  0  0  0
    4.9204   -6.5017   37.5923 S   0  0  0  0  0  0  0  0  0  0  0  0
    4.9209   -7.9216   36.6273 C   0  0  0  0  0  0  0  0  0  0  0  0
    3.7886   -8.0166   35.8416 C   0  0  0  0  0  0  0  0  0  0  0  0
    2.9237   -6.9196   36.0526 C   0  0  0  0  0  0  0  0  0  0  0  0
    1.7372   -6.6736   35.4669 N   0  0  0  0  0  0  0  0  0  0  0  0
    0.5980   -2.0196   32.4541 C   0  0  0  0  0  0  0  0  0  0  0  0
    0.9916   -0.7355   32.8314 C   0  0  0  0  0  0  0  0  0  0  0  0
    3.6228    3.3480   32.1354 H   0  0  0  0  0  0  0  0  0  0  0  0
    3.0921    3.5393   33.8355 H   0  0  0  0  0  0  0  0  0  0  0  0
    1.9118    3.7091   32.4988 H   0  0  0  0  0  0  0  0  0  0  0  0
    2.2374    1.2916   32.0562 H   0  0  0  0  0  0  0  0  0  0  0  0
    3.6501   -1.5551   34.8005 H   0  0  0  0  0  0  0  0  0  0  0  0
    2.9779   -3.8193   34.1040 H   0  0  0  0  0  0  0  0  0  0  0  0
    1.7854   -4.1803   30.4749 H   0  0  0  0  0  0  0  0  0  0  0  0
    0.8552   -6.1769   29.4584 H   0  0  0  0  0  0  0  0  0  0  0  0
   -1.7032   -8.7142   34.5942 H   0  0  0  0  0  0  0  0  0  0  0  0
   -1.5992   -7.0564   34.9559 H   0  0  0  0  0  0  0  0  0  0  0  0
    5.7531   -8.6106   36.6868 H   0  0  0  0  0  0  0  0  0  0  0  0
    3.6252   -8.8369   35.1611 H   0  0  0  0  0  0  0  0  0  0  0  0
    1.1801   -7.3422   34.9460 H   0  0  0  0  0  0  0  0  0  0  0  0
   -0.2730   -2.1355   31.8110 H   0  0  0  0  0  0  0  0  0  0  0  0
    0.4046    0.1169   32.4990 H   0  0  0  0  0  0  0  0  0  0  0  0
  1  2  1  0
  2  3  1  0
  3  4  2  0
  3  5  1  0
  5  6  2  0
  6  7  1  0
  7  8  2  0
  8  9  1  0
  9 10  1  0
 10 11  2  0
 11 12  1  0
 12 13  2  0
 13 14  1  0
 14 15  2  0
 15 16  1  0
 15 17  1  0
 17 18  1  0
 18 19  1  0
 19 20  1  0
 20 21  2  0
 21 22  1  0
 22 23  2  0
 22 24  1  0
 24 25  1  0
 25 26  1  0
 26 27  2  0
 27 28  1  0
 28 29  1  0
  8 30  1  0
 30 31  2  0
 31  5  1  0
 18  9  2  0
 29 20  1  0
 17 12  1  0
 28 24  2  0
  1 32  1  0
  1 33  1  0
  1 34  1  0
  2 35  1  0
  6 36  1  0
  7 37  1  0
 10 38  1  0
 11 39  1  0
 16 40  1  0
 16 41  1  0
 26 42  1  0
 27 43  1  0
 29 44  1  0
 30 45  1  0
 31 46  1  0
M  END
>  <Energy>  (127) 
25.847687119696111

>  <compound_id>  (127) 
3945

>  <target_id>  (127) 
1

>  <reference_id>  (127) 
163

>  <inspiration_ids>  (127) 
[136, 163]

>  <energy_score>  (127) 
-60.42627965254921

>  <distance_score>  (127) 
1.6697049913043953

>  <path>  (127) 
/opt/xchem-fragalysis-2/maxwin/BulkDock/SCRATCH/505735/C3945-P163/C3945-P163.minimised.mol

>  <scratch_subdir>  (127) 
/opt/xchem-fragalysis-2/maxwin/BulkDock/SCRATCH/505735/C3945-P163

>  <fragmenstein_runtime>  (127) 
4.729835510253906

>  <fragmenstein_outcome>  (127) 
too moved

>  <fragmenstein_mode>  (127) 
expansion

>  <fragmenstein_error>  (127) 


$$$$
C3945-P136
     RDKit          3D

 46 50  0  0  0  0  0  0  0  0999 V2000
    3.6449    2.2950   35.5609 C   0  0  0  0  0  0  0  0  0  0  0  0
    3.2926    1.0387   34.9662 N   0  0  0  0  0  0  0  0  0  0  0  0
    4.1705   -0.0263   34.2862 C   0  0  0  0  0  0  0  0  0  0  0  0
    5.3069   -0.0181   34.0326 O   0  0  0  0  0  0  0  0  0  0  0  0
    3.3685   -1.2269   33.9149 C   0  0  0  0  0  0  0  0  0  0  0  0
    2.5032   -1.8386   34.8232 C   0  0  0  0  0  0  0  0  0  0  0  0
    1.7635   -2.9623   34.4376 C   0  0  0  0  0  0  0  0  0  0  0  0
    1.9099   -3.5220   33.1614 C   0  0  0  0  0  0  0  0  0  0  0  0
    1.0378   -4.6415   32.6997 C   0  0  0  0  0  0  0  0  0  0  0  0
    0.4852   -4.5394   31.3334 C   0  0  0  0  0  0  0  0  0  0  0  0
   -0.1751   -5.5386   30.7392 C   0  0  0  0  0  0  0  0  0  0  0  0
   -0.5705   -6.6455   31.5116 C   0  0  0  0  0  0  0  0  0  0  0  0
   -1.3145   -7.6840   31.2149 N   0  0  0  0  0  0  0  0  0  0  0  0
   -1.5820   -8.3251   32.3899 N   0  0  0  0  0  0  0  0  0  0  0  0
   -0.9723   -7.6922   33.3697 C   0  0  0  0  0  0  0  0  0  0  0  0
   -1.1570   -7.9086   34.6954 N   0  0  0  0  0  0  0  0  0  0  0  0
   -0.1814   -6.6822   32.8484 N   0  0  0  0  0  0  0  0  0  0  0  0
    0.7462   -5.7738   33.4188 C   0  0  0  0  0  0  0  0  0  0  0  0
    1.8930   -6.3760   34.6097 S   0  0  0  0  0  0  0  0  0  0  0  0
    1.2519   -6.5624   36.2349 C   0  0  0  0  0  0  0  0  0  0  0  0
    1.8559   -7.4822   36.9269 N   0  0  0  0  0  0  0  0  0  0  0  0
    1.5677   -7.6741   38.2661 C   0  0  0  0  0  0  0  0  0  0  0  0
    2.1583   -8.5074   38.9429 O   0  0  0  0  0  0  0  0  0  0  0  0
    0.6017   -6.7383   38.7701 C   0  0  0  0  0  0  0  0  0  0  0  0
    0.1340   -6.6480   40.3978 S   0  0  0  0  0  0  0  0  0  0  0  0
   -0.8986   -5.3207   40.0645 C   0  0  0  0  0  0  0  0  0  0  0  0
   -0.8805   -4.9634   38.7291 C   0  0  0  0  0  0  0  0  0  0  0  0
   -0.0107   -5.7924   37.9899 C   0  0  0  0  0  0  0  0  0  0  0  0
    0.2695   -5.7186   36.6724 N   0  0  0  0  0  0  0  0  0  0  0  0
    2.8079   -2.9098   32.2711 C   0  0  0  0  0  0  0  0  0  0  0  0
    3.5227   -1.7668   32.6387 C   0  0  0  0  0  0  0  0  0  0  0  0
    2.9328    3.0523   35.2269 H   0  0  0  0  0  0  0  0  0  0  0  0
    3.5913    2.1902   36.6469 H   0  0  0  0  0  0  0  0  0  0  0  0
    4.6604    2.5670   35.2651 H   0  0  0  0  0  0  0  0  0  0  0  0
    2.3603    0.6700   35.1041 H   0  0  0  0  0  0  0  0  0  0  0  0
    2.3991   -1.4556   35.8353 H   0  0  0  0  0  0  0  0  0  0  0  0
    1.0559   -3.3737   35.1500 H   0  0  0  0  0  0  0  0  0  0  0  0
    0.6952   -3.6437   30.7523 H   0  0  0  0  0  0  0  0  0  0  0  0
   -0.4886   -5.4596   29.7056 H   0  0  0  0  0  0  0  0  0  0  0  0
   -1.7064   -8.7800   34.8256 H   0  0  0  0  0  0  0  0  0  0  0  0
   -0.3205   -8.1401   35.2238 H   0  0  0  0  0  0  0  0  0  0  0  0
   -1.4858   -4.8766   40.8576 H   0  0  0  0  0  0  0  0  0  0  0  0
   -1.4794   -4.1539   38.3317 H   0  0  0  0  0  0  0  0  0  0  0  0
   -0.2124   -5.1124   36.0216 H   0  0  0  0  0  0  0  0  0  0  0  0
    2.9695   -3.3123   31.2727 H   0  0  0  0  0  0  0  0  0  0  0  0
    4.2161   -1.3101   31.9347 H   0  0  0  0  0  0  0  0  0  0  0  0
  1  2  1  0
  2  3  1  0
  3  4  2  0
  3  5  1  0
  5  6  2  0
  6  7  1  0
  7  8  2  0
  8  9  1  0
  9 10  1  0
 10 11  2  0
 11 12  1  0
 12 13  2  0
 13 14  1  0
 14 15  2  0
 15 16  1  0
 15 17  1  0
 17 18  1  0
 18 19  1  0
 19 20  1  0
 20 21  2  0
 21 22  1  0
 22 23  2  0
 22 24  1  0
 24 25  1  0
 25 26  1  0
 26 27  2  0
 27 28  1  0
 28 29  1  0
  8 30  1  0
 30 31  2  0
 31  5  1  0
 18  9  2  0
 29 20  1  0
 17 12  1  0
 28 24  2  0
  1 32  1  0
  1 33  1  0
  1 34  1  0
  2 35  1  0
  6 36  1  0
  7 37  1  0
 10 38  1  0
 11 39  1  0
 16 40  1  0
 16 41  1  0
 26 42  1  0
 27 43  1  0
 29 44  1  0
 30 45  1  0
 31 46  1  0
M  END
>  <Energy>  (128) 
50.899275296217489

>  <compound_id>  (128) 
3945

>  <target_id>  (128) 
1

>  <reference_id>  (128) 
136

>  <inspiration_ids>  (128) 
[136, 164]

>  <energy_score>  (128) 
-24.23738186883756

>  <distance_score>  (128) 
1.4401039267392466

>  <path>  (128) 
/opt/xchem-fragalysis-2/maxwin/BulkDock/SCRATCH/505735/C3945-P136/C3945-P136.minimised.mol

>  <scratch_subdir>  (128) 
/opt/xchem-fragalysis-2/maxwin/BulkDock/SCRATCH/505735/C3945-P136

>  <fragmenstein_runtime>  (128) 
4.005768537521362

>  <fragmenstein_outcome>  (128) 
too moved

>  <fragmenstein_mode>  (128) 
expansion

>  <fragmenstein_error>  (128) 


$$$$
C3945-P164
     RDKit          3D

 46 50  0  0  0  0  0  0  0  0999 V2000
    4.6027    2.5442   33.1747 C   0  0  0  0  0  0  0  0  0  0  0  0
    4.0814    1.2087   33.1724 N   0  0  0  0  0  0  0  0  0  0  0  0
    4.0990    0.1268   34.2667 C   0  0  0  0  0  0  0  0  0  0  0  0
    4.6064    0.1216   35.3148 O   0  0  0  0  0  0  0  0  0  0  0  0
    3.3499   -1.0901   33.8386 C   0  0  0  0  0  0  0  0  0  0  0  0
    2.4859   -1.6968   34.7512 C   0  0  0  0  0  0  0  0  0  0  0  0
    1.7568   -2.8317   34.3841 C   0  0  0  0  0  0  0  0  0  0  0  0
    1.9173   -3.4124   33.1203 C   0  0  0  0  0  0  0  0  0  0  0  0
    1.0611   -4.5501   32.6770 C   0  0  0  0  0  0  0  0  0  0  0  0
    0.4961   -4.4707   31.3174 C   0  0  0  0  0  0  0  0  0  0  0  0
   -0.1516   -5.4879   30.7419 C   0  0  0  0  0  0  0  0  0  0  0  0
   -0.5229   -6.5950   31.5273 C   0  0  0  0  0  0  0  0  0  0  0  0
   -1.2495   -7.6520   31.2486 N   0  0  0  0  0  0  0  0  0  0  0  0
   -1.4467   -8.3221   32.4225 N   0  0  0  0  0  0  0  0  0  0  0  0
   -0.8500   -7.6591   33.3885 C   0  0  0  0  0  0  0  0  0  0  0  0
   -0.9534   -7.9158   34.7097 N   0  0  0  0  0  0  0  0  0  0  0  0
   -0.1170   -6.6121   32.8585 N   0  0  0  0  0  0  0  0  0  0  0  0
    0.8017   -5.6820   33.4076 C   0  0  0  0  0  0  0  0  0  0  0  0
    1.9705   -6.2244   34.6058 S   0  0  0  0  0  0  0  0  0  0  0  0
    1.2889   -6.5483   36.1919 C   0  0  0  0  0  0  0  0  0  0  0  0
    1.8797   -7.5063   36.8398 N   0  0  0  0  0  0  0  0  0  0  0  0
    1.5901   -7.7532   38.1687 C   0  0  0  0  0  0  0  0  0  0  0  0
    2.1799   -8.6154   38.8060 O   0  0  0  0  0  0  0  0  0  0  0  0
    0.6355   -6.8281   38.7155 C   0  0  0  0  0  0  0  0  0  0  0  0
    0.1860   -6.7904   40.3503 S   0  0  0  0  0  0  0  0  0  0  0  0
   -0.8003   -5.4126   40.0862 C   0  0  0  0  0  0  0  0  0  0  0  0
   -0.7849   -5.0014   38.7665 C   0  0  0  0  0  0  0  0  0  0  0  0
    0.0393   -5.8359   37.9812 C   0  0  0  0  0  0  0  0  0  0  0  0
    0.3024   -5.7196   36.6623 N   0  0  0  0  0  0  0  0  0  0  0  0
    2.8159   -2.8095   32.2243 C   0  0  0  0  0  0  0  0  0  0  0  0
    3.5188   -1.6517   32.5728 C   0  0  0  0  0  0  0  0  0  0  0  0
    5.3402    2.6305   32.3739 H   0  0  0  0  0  0  0  0  0  0  0  0
    3.7795    3.2387   32.9938 H   0  0  0  0  0  0  0  0  0  0  0  0
    5.0681    2.7545   34.1400 H   0  0  0  0  0  0  0  0  0  0  0  0
    3.6120    0.8502   32.3506 H   0  0  0  0  0  0  0  0  0  0  0  0
    2.3610   -1.2687   35.7444 H   0  0  0  0  0  0  0  0  0  0  0  0
    1.0447   -3.2282   35.0988 H   0  0  0  0  0  0  0  0  0  0  0  0
    0.6909   -3.5802   30.7232 H   0  0  0  0  0  0  0  0  0  0  0  0
   -0.4647   -5.4218   29.7084 H   0  0  0  0  0  0  0  0  0  0  0  0
   -1.3546   -7.1916   35.2966 H   0  0  0  0  0  0  0  0  0  0  0  0
   -1.4512   -8.8040   34.8781 H   0  0  0  0  0  0  0  0  0  0  0  0
   -1.3546   -4.9781   40.9078 H   0  0  0  0  0  0  0  0  0  0  0  0
   -1.3543   -4.1508   38.4138 H   0  0  0  0  0  0  0  0  0  0  0  0
    0.0091   -4.9311   36.1027 H   0  0  0  0  0  0  0  0  0  0  0  0
    2.9902   -3.2373   31.2384 H   0  0  0  0  0  0  0  0  0  0  0  0
    4.2298   -1.2305   31.8665 H   0  0  0  0  0  0  0  0  0  0  0  0
  1  2  1  0
  2  3  1  0
  3  4  2  0
  3  5  1  0
  5  6  2  0
  6  7  1  0
  7  8  2  0
  8  9  1  0
  9 10  1  0
 10 11  2  0
 11 12  1  0
 12 13  2  0
 13 14  1  0
 14 15  2  0
 15 16  1  0
 15 17  1  0
 17 18  1  0
 18 19  1  0
 19 20  1  0
 20 21  2  0
 21 22  1  0
 22 23  2  0
 22 24  1  0
 24 25  1  0
 25 26  1  0
 26 27  2  0
 27 28  1  0
 28 29  1  0
  8 30  1  0
 30 31  2  0
 31  5  1  0
 18  9  2  0
 29 20  1  0
 17 12  1  0
 28 24  2  0
  1 32  1  0
  1 33  1  0
  1 34  1  0
  2 35  1  0
  6 36  1  0
  7 37  1  0
 10 38  1  0
 11 39  1  0
 16 40  1  0
 16 41  1  0
 26 42  1  0
 27 43  1  0
 29 44  1  0
 30 45  1  0
 31 46  1  0
M  END
>  <Energy>  (129) 
50.965549811825937

>  <compound_id>  (129) 
3945

>  <target_id>  (129) 
1

>  <reference_id>  (129) 
164

>  <inspiration_ids>  (129) 
[136, 164]

>  <energy_score>  (129) 
-24.1711073532295

>  <distance_score>  (129) 
1.6262362354572972

>  <path>  (129) 
/opt/xchem-fragalysis-2/maxwin/BulkDock/SCRATCH/505735/C3945-P164/C3945-P164.minimised.mol

>  <scratch_subdir>  (129) 
/opt/xchem-fragalysis-2/maxwin/BulkDock/SCRATCH/505735/C3945-P164

>  <fragmenstein_runtime>  (129) 
3.918128252029419

>  <fragmenstein_outcome>  (129) 
too moved

>  <fragmenstein_mode>  (129) 
expansion

>  <fragmenstein_error>  (129) 


$$$$
C2637-P136
     RDKit          3D

 57 61  0  0  0  0  0  0  0  0999 V2000
    5.0331    1.9334   34.3641 C   0  0  0  0  0  0  0  0  0  0  0  0
    4.2251    0.7478   34.3796 N   0  0  0  0  0  0  0  0  0  0  0  0
    3.5682    0.0768   35.4539 C   0  0  0  0  0  0  0  0  0  0  0  0
    3.4555    0.3714   36.6064 O   0  0  0  0  0  0  0  0  0  0  0  0
    2.9223   -1.1995   35.0305 C   0  0  0  0  0  0  0  0  0  0  0  0
    1.6060   -1.4487   35.4308 C   0  0  0  0  0  0  0  0  0  0  0  0
    0.9785   -2.6424   35.0686 C   0  0  0  0  0  0  0  0  0  0  0  0
    1.6676   -3.6022   34.3179 C   0  0  0  0  0  0  0  0  0  0  0  0
    0.9910   -4.8552   33.9341 C   0  0  0  0  0  0  0  0  0  0  0  0
    0.6785   -4.9675   32.6318 C   0  0  0  0  0  0  0  0  0  0  0  0
   -0.0051   -6.0862   32.1906 N   0  0  0  0  0  0  0  0  0  0  0  0
   -0.3830   -6.4565   30.9251 C   0  0  0  0  0  0  0  0  0  0  0  0
   -0.0913   -5.6964   29.8539 N   0  0  0  0  0  0  0  0  0  0  0  0
   -1.0313   -7.5979   30.9709 N   0  0  0  0  0  0  0  0  0  0  0  0
   -1.0777   -8.0023   32.2885 N   0  0  0  0  0  0  0  0  0  0  0  0
   -0.4417   -7.1024   33.0093 C   0  0  0  0  0  0  0  0  0  0  0  0
   -0.1024   -7.0119   34.3842 C   0  0  0  0  0  0  0  0  0  0  0  0
    0.6259   -5.9669   34.8536 C   0  0  0  0  0  0  0  0  0  0  0  0
    1.0876   -5.8728   36.1588 N   0  0  0  0  0  0  0  0  0  0  0  0
    1.5621   -6.9961   36.9466 C   0  0  0  0  0  0  0  0  0  0  0  0
    0.5433   -7.3511   38.0622 C   0  0  0  0  0  0  0  0  0  0  0  0
    1.2239   -7.4548   39.3898 C   0  0  0  0  0  0  0  0  0  0  0  0
    0.6476   -8.3968   40.6733 S   0  0  0  0  0  0  0  0  0  0  0  0
    2.0021   -7.9900   41.6383 C   0  0  0  0  0  0  0  0  0  0  0  0
    2.8591   -7.1218   40.9944 C   0  0  0  0  0  0  0  0  0  0  0  0
    2.3957   -6.7910   39.6900 C   0  0  0  0  0  0  0  0  0  0  0  0
    3.0300   -5.8974   38.6816 C   0  0  0  0  0  0  0  0  0  0  0  0
    2.8862   -6.5862   37.4091 N   0  0  0  0  0  0  0  0  0  0  0  0
    4.0078   -6.8473   36.6479 C   0  0  0  0  0  0  0  0  0  0  0  0
    4.4198   -6.0508   35.8053 O   0  0  0  0  0  0  0  0  0  0  0  0
    4.7167   -8.1548   37.0198 C   0  0  0  0  0  0  0  0  0  0  0  0
    5.1274   -9.0863   35.5242 S   0  0  0  0  0  0  0  0  0  0  0  0
    6.1921   -7.7522   37.9256 Cl  0  0  0  0  0  0  0  0  0  0  0  0
    2.9944   -3.3573   33.9374 C   0  0  0  0  0  0  0  0  0  0  0  0
    3.6219   -2.1598   34.2913 C   0  0  0  0  0  0  0  0  0  0  0  0
    4.7268    2.5540   33.5194 H   0  0  0  0  0  0  0  0  0  0  0  0
    6.0779    1.6376   34.2448 H   0  0  0  0  0  0  0  0  0  0  0  0
    4.9084    2.4778   35.3030 H   0  0  0  0  0  0  0  0  0  0  0  0
    4.1873    0.1638   33.5539 H   0  0  0  0  0  0  0  0  0  0  0  0
    1.0693   -0.7134   36.0273 H   0  0  0  0  0  0  0  0  0  0  0  0
   -0.0494   -2.8215   35.3814 H   0  0  0  0  0  0  0  0  0  0  0  0
    0.9261   -4.2139   31.8952 H   0  0  0  0  0  0  0  0  0  0  0  0
   -0.0420   -4.6861   29.9474 H   0  0  0  0  0  0  0  0  0  0  0  0
   -0.5870   -5.9327   28.9924 H   0  0  0  0  0  0  0  0  0  0  0  0
   -0.4171   -7.8300   35.0249 H   0  0  0  0  0  0  0  0  0  0  0  0
    1.7345   -5.0940   36.2745 H   0  0  0  0  0  0  0  0  0  0  0  0
    1.7146   -7.8705   36.3024 H   0  0  0  0  0  0  0  0  0  0  0  0
    0.0585   -8.2942   37.7980 H   0  0  0  0  0  0  0  0  0  0  0  0
   -0.2479   -6.5934   38.1278 H   0  0  0  0  0  0  0  0  0  0  0  0
    2.0980   -8.3979   42.6353 H   0  0  0  0  0  0  0  0  0  0  0  0
    3.7664   -6.7413   41.4489 H   0  0  0  0  0  0  0  0  0  0  0  0
    2.5094   -4.9356   38.6235 H   0  0  0  0  0  0  0  0  0  0  0  0
    4.0858   -5.7145   38.9031 H   0  0  0  0  0  0  0  0  0  0  0  0
    4.0820   -8.7713   37.6624 H   0  0  0  0  0  0  0  0  0  0  0  0
    5.9127   -8.1311   35.0010 H   0  0  0  0  0  0  0  0  0  0  0  0
    3.5575   -4.1110   33.3901 H   0  0  0  0  0  0  0  0  0  0  0  0
    4.6650   -2.0079   34.0263 H   0  0  0  0  0  0  0  0  0  0  0  0
  1  2  1  0
  2  3  1  0
  3  4  2  0
  3  5  1  0
  5  6  2  0
  6  7  1  0
  7  8  2  0
  8  9  1  0
  9 10  2  0
 10 11  1  0
 11 12  1  0
 12 13  1  0
 12 14  2  0
 14 15  1  0
 15 16  2  0
 16 17  1  0
 17 18  2  0
 18 19  1  0
 19 20  1  0
 20 21  1  0
 21 22  1  0
 22 23  1  0
 23 24  1  0
 24 25  2  0
 25 26  1  0
 26 27  1  0
 27 28  1  0
 28 29  1  0
 29 30  2  0
 29 31  1  0
 31 32  1  0
 31 33  1  0
  8 34  1  0
 34 35  2  0
 35  5  1  0
 18  9  1  0
 28 20  1  0
 16 11  1  0
 26 22  2  0
  1 36  1  0
  1 37  1  0
  1 38  1  0
  2 39  1  0
  6 40  1  0
  7 41  1  0
 10 42  1  0
 13 43  1  0
 13 44  1  0
 17 45  1  0
 19 46  1  0
 20 47  1  0
 21 48  1  0
 21 49  1  0
 24 50  1  0
 25 51  1  0
 27 52  1  0
 27 53  1  0
 31 54  1  0
 32 55  1  0
 34 56  1  0
 35 57  1  0
M  END
>  <Energy>  (130) 
77.359062201584663

>  <compound_id>  (130) 
2637

>  <target_id>  (130) 
1

>  <reference_id>  (130) 
136

>  <inspiration_ids>  (130) 
[136, 167]

>  <energy_score>  (130) 
-72.06705459152158

>  <distance_score>  (130) 
2.6268686935460592

>  <path>  (130) 
/opt/xchem-fragalysis-2/maxwin/BulkDock/SCRATCH/505735/C2637-P136/C2637-P136.minimised.mol

>  <scratch_subdir>  (130) 
/opt/xchem-fragalysis-2/maxwin/BulkDock/SCRATCH/505735/C2637-P136

>  <fragmenstein_runtime>  (130) 
5.972480773925781

>  <fragmenstein_outcome>  (130) 
too moved

>  <fragmenstein_mode>  (130) 
expansion

>  <fragmenstein_error>  (130) 


$$$$
C2637-P167
     RDKit          3D

 57 61  0  0  0  0  0  0  0  0999 V2000
    3.3204    2.7547   32.8992 C   0  0  0  0  0  0  0  0  0  0  0  0
    2.8048    1.4532   33.2074 N   0  0  0  0  0  0  0  0  0  0  0  0
    2.0801    0.9366   34.4627 C   0  0  0  0  0  0  0  0  0  0  0  0
    1.8552    1.4653   35.4758 O   0  0  0  0  0  0  0  0  0  0  0  0
    1.6521   -0.4835   34.2912 C   0  0  0  0  0  0  0  0  0  0  0  0
    1.8290   -1.3703   35.3603 C   0  0  0  0  0  0  0  0  0  0  0  0
    1.4199   -2.7016   35.2539 C   0  0  0  0  0  0  0  0  0  0  0  0
    0.8369   -3.1573   34.0729 C   0  0  0  0  0  0  0  0  0  0  0  0
    0.6359   -4.5836   33.7991 C   0  0  0  0  0  0  0  0  0  0  0  0
   -0.4191   -5.3627   34.0847 C   0  0  0  0  0  0  0  0  0  0  0  0
   -0.5987   -6.5144   33.3001 N   0  0  0  0  0  0  0  0  0  0  0  0
   -1.3825   -7.6445   33.3863 C   0  0  0  0  0  0  0  0  0  0  0  0
   -2.0246   -8.0271   34.5009 N   0  0  0  0  0  0  0  0  0  0  0  0
   -1.3353   -8.2873   32.2346 N   0  0  0  0  0  0  0  0  0  0  0  0
   -0.3757   -7.7006   31.4414 N   0  0  0  0  0  0  0  0  0  0  0  0
    0.1561   -6.7320   32.1507 C   0  0  0  0  0  0  0  0  0  0  0  0
    1.4206   -6.0768   32.1172 C   0  0  0  0  0  0  0  0  0  0  0  0
    1.7219   -5.3349   33.1982 C   0  0  0  0  0  0  0  0  0  0  0  0
    2.8176   -5.5262   34.0429 N   0  0  0  0  0  0  0  0  0  0  0  0
    2.8454   -6.6142   35.0536 C   0  0  0  0  0  0  0  0  0  0  0  0
    1.7236   -6.5797   36.1406 C   0  0  0  0  0  0  0  0  0  0  0  0
    2.0470   -7.5729   37.2180 C   0  0  0  0  0  0  0  0  0  0  0  0
    0.9031   -8.0957   38.3588 S   0  0  0  0  0  0  0  0  0  0  0  0
    2.0392   -9.1536   39.0780 C   0  0  0  0  0  0  0  0  0  0  0  0
    3.2787   -9.0713   38.4777 C   0  0  0  0  0  0  0  0  0  0  0  0
    3.2973   -8.1340   37.3979 C   0  0  0  0  0  0  0  0  0  0  0  0
    4.4807   -7.7764   36.5409 C   0  0  0  0  0  0  0  0  0  0  0  0
    4.1445   -6.6148   35.7172 N   0  0  0  0  0  0  0  0  0  0  0  0
    5.0498   -5.5819   35.5998 C   0  0  0  0  0  0  0  0  0  0  0  0
    5.0282   -4.6394   36.3923 O   0  0  0  0  0  0  0  0  0  0  0  0
    6.0531   -5.7155   34.4539 C   0  0  0  0  0  0  0  0  0  0  0  0
    6.3233   -4.1187   33.6438 S   0  0  0  0  0  0  0  0  0  0  0  0
    7.5739   -6.3432   35.1313 Cl  0  0  0  0  0  0  0  0  0  0  0  0
    0.6526   -2.2615   33.0019 C   0  0  0  0  0  0  0  0  0  0  0  0
    1.0492   -0.9269   33.1110 C   0  0  0  0  0  0  0  0  0  0  0  0
    2.8300    3.1170   31.9932 H   0  0  0  0  0  0  0  0  0  0  0  0
    4.3956    2.6706   32.7275 H   0  0  0  0  0  0  0  0  0  0  0  0
    3.1237    3.4337   33.7316 H   0  0  0  0  0  0  0  0  0  0  0  0
    2.8966    0.7004   32.5364 H   0  0  0  0  0  0  0  0  0  0  0  0
    2.2857   -1.0186   36.2844 H   0  0  0  0  0  0  0  0  0  0  0  0
    1.5917   -3.3670   36.0946 H   0  0  0  0  0  0  0  0  0  0  0  0
   -1.1527   -5.1117   34.8265 H   0  0  0  0  0  0  0  0  0  0  0  0
   -1.8891   -7.6275   35.4330 H   0  0  0  0  0  0  0  0  0  0  0  0
   -2.2026   -9.0346   34.5855 H   0  0  0  0  0  0  0  0  0  0  0  0
    2.1980   -6.5427   31.5635 H   0  0  0  0  0  0  0  0  0  0  0  0
    2.9782   -4.6533   34.5553 H   0  0  0  0  0  0  0  0  0  0  0  0
    2.7751   -7.5676   34.5204 H   0  0  0  0  0  0  0  0  0  0  0  0
    0.7630   -6.8533   35.7063 H   0  0  0  0  0  0  0  0  0  0  0  0
    1.6469   -5.5837   36.5870 H   0  0  0  0  0  0  0  0  0  0  0  0
    1.7344   -9.7922   39.8972 H   0  0  0  0  0  0  0  0  0  0  0  0
    4.1273   -9.6586   38.8075 H   0  0  0  0  0  0  0  0  0  0  0  0
    4.7219   -8.6059   35.8671 H   0  0  0  0  0  0  0  0  0  0  0  0
    5.3575   -7.5546   37.1582 H   0  0  0  0  0  0  0  0  0  0  0  0
    5.7023   -6.4350   33.7136 H   0  0  0  0  0  0  0  0  0  0  0  0
    6.5663   -3.4460   34.7808 H   0  0  0  0  0  0  0  0  0  0  0  0
    0.2130   -2.6061   32.0671 H   0  0  0  0  0  0  0  0  0  0  0  0
    0.8621   -0.2456   32.2853 H   0  0  0  0  0  0  0  0  0  0  0  0
  1  2  1  0
  2  3  1  0
  3  4  2  0
  3  5  1  0
  5  6  2  0
  6  7  1  0
  7  8  2  0
  8  9  1  0
  9 10  2  0
 10 11  1  0
 11 12  1  0
 12 13  1  0
 12 14  2  0
 14 15  1  0
 15 16  2  0
 16 17  1  0
 17 18  2  0
 18 19  1  0
 19 20  1  0
 20 21  1  0
 21 22  1  0
 22 23  1  0
 23 24  1  0
 24 25  2  0
 25 26  1  0
 26 27  1  0
 27 28  1  0
 28 29  1  0
 29 30  2  0
 29 31  1  0
 31 32  1  0
 31 33  1  0
  8 34  1  0
 34 35  2  0
 35  5  1  0
 18  9  1  0
 28 20  1  0
 16 11  1  0
 26 22  2  0
  1 36  1  0
  1 37  1  0
  1 38  1  0
  2 39  1  0
  6 40  1  0
  7 41  1  0
 10 42  1  0
 13 43  1  0
 13 44  1  0
 17 45  1  0
 19 46  1  0
 20 47  1  0
 21 48  1  0
 21 49  1  0
 24 50  1  0
 25 51  1  0
 27 52  1  0
 27 53  1  0
 31 54  1  0
 32 55  1  0
 34 56  1  0
 35 57  1  0
M  END
>  <Energy>  (131) 
141.23044050239969

>  <compound_id>  (131) 
2637

>  <target_id>  (131) 
1

>  <reference_id>  (131) 
167

>  <inspiration_ids>  (131) 
[136, 167]

>  <energy_score>  (131) 
-3.5241994276531727

>  <distance_score>  (131) 
2.1111052610919123

>  <path>  (131) 
/opt/xchem-fragalysis-2/maxwin/BulkDock/SCRATCH/505735/C2637-P167/C2637-P167.minimised.mol

>  <scratch_subdir>  (131) 
/opt/xchem-fragalysis-2/maxwin/BulkDock/SCRATCH/505735/C2637-P167

>  <fragmenstein_runtime>  (131) 
4.379608869552612

>  <fragmenstein_outcome>  (131) 
too moved

>  <fragmenstein_mode>  (131) 
expansion

>  <fragmenstein_error>  (131) 


$$$$
C3948-P136
     RDKit          3D

 52 53  0  0  0  0  0  0  0  0999 V2000
   -1.2769   -5.5598   36.3634 C   0  0  0  0  0  0  0  0  0  0  0  0
   -1.3144   -6.8517   35.5592 C   0  0  0  0  0  0  0  0  0  0  0  0
    0.0478   -7.3442   35.1068 C   0  0  0  0  0  0  0  0  0  0  0  0
    0.4775   -6.8206   33.7440 C   0  0  0  0  0  0  0  0  0  0  0  0
    1.8658   -7.0401   33.5008 N   0  0  0  0  0  0  0  0  0  0  0  0
    0.2870   -5.4164   33.5131 N   0  0  0  0  0  0  0  0  0  0  0  0
   -0.8285   -5.3292   32.6347 N   0  0  0  0  0  0  0  0  0  0  0  0
   -0.5199   -6.3599   31.6795 C   0  0  0  0  0  0  0  0  0  0  0  0
    0.6341   -6.0447   30.6987 C   0  0  0  0  0  0  0  0  0  0  0  0
    0.6355   -4.7427   29.9055 C   0  0  0  0  0  0  0  0  0  0  0  0
    0.5931   -3.3731   30.5950 C   0  0  0  0  0  0  0  0  0  0  0  0
    1.4109   -3.0021   31.8068 C   0  0  0  0  0  0  0  0  0  0  0  0
    2.5989   -3.6300   32.1943 C   0  0  0  0  0  0  0  0  0  0  0  0
    3.2491   -3.2596   33.3781 C   0  0  0  0  0  0  0  0  0  0  0  0
    2.7402   -2.2174   34.1512 C   0  0  0  0  0  0  0  0  0  0  0  0
    3.3995   -1.8402   35.4234 C   0  0  0  0  0  0  0  0  0  0  0  0
    3.8843   -0.7862   35.5193 O   0  0  0  0  0  0  0  0  0  0  0  0
    3.3046   -2.9905   36.4404 N   0  0  0  0  0  0  0  0  0  0  0  0
    3.8660   -3.1219   37.7517 C   0  0  0  0  0  0  0  0  0  0  0  0
    1.6213   -1.5075   33.7256 C   0  0  0  0  0  0  0  0  0  0  0  0
    0.9576   -1.9080   32.5674 C   0  0  0  0  0  0  0  0  0  0  0  0
   -0.1487   -7.4623   32.5795 N   0  0  0  0  0  0  0  0  0  0  0  0
    1.3258   -7.0524   36.3467 S   0  0  0  0  0  0  0  0  0  0  0  0
    0.8725   -7.5078   37.6455 O   0  0  0  0  0  0  0  0  0  0  0  0
    1.8722   -5.7102   36.2003 O   0  0  0  0  0  0  0  0  0  0  0  0
    2.5341   -8.0311   35.9890 F   0  0  0  0  0  0  0  0  0  0  0  0
   -1.0063   -5.7515   37.4066 H   0  0  0  0  0  0  0  0  0  0  0  0
   -2.2583   -5.0988   36.3899 H   0  0  0  0  0  0  0  0  0  0  0  0
   -0.6051   -4.7915   35.9884 H   0  0  0  0  0  0  0  0  0  0  0  0
   -1.9931   -6.7573   34.7104 H   0  0  0  0  0  0  0  0  0  0  0  0
   -1.7381   -7.6406   36.1796 H   0  0  0  0  0  0  0  0  0  0  0  0
   -0.0204   -8.4299   35.0762 H   0  0  0  0  0  0  0  0  0  0  0  0
    2.2512   -6.0999   33.3943 H   0  0  0  0  0  0  0  0  0  0  0  0
    1.8504   -7.4139   32.5545 H   0  0  0  0  0  0  0  0  0  0  0  0
    0.2376   -4.8418   34.3496 H   0  0  0  0  0  0  0  0  0  0  0  0
   -0.9107   -4.4113   32.2091 H   0  0  0  0  0  0  0  0  0  0  0  0
   -1.4033   -6.6531   31.1109 H   0  0  0  0  0  0  0  0  0  0  0  0
    0.6753   -6.8754   29.9820 H   0  0  0  0  0  0  0  0  0  0  0  0
    1.6053   -6.0733   31.1894 H   0  0  0  0  0  0  0  0  0  0  0  0
   -0.2111   -4.7665   29.2100 H   0  0  0  0  0  0  0  0  0  0  0  0
    1.5353   -4.7596   29.2746 H   0  0  0  0  0  0  0  0  0  0  0  0
   -0.4616   -3.1498   30.8032 H   0  0  0  0  0  0  0  0  0  0  0  0
    0.8666   -2.6382   29.8227 H   0  0  0  0  0  0  0  0  0  0  0  0
    3.0292   -4.4209   31.5880 H   0  0  0  0  0  0  0  0  0  0  0  0
    4.1570   -3.7734   33.6841 H   0  0  0  0  0  0  0  0  0  0  0  0
    2.8830   -3.8050   35.9947 H   0  0  0  0  0  0  0  0  0  0  0  0
    4.7004   -3.8250   37.7013 H   0  0  0  0  0  0  0  0  0  0  0  0
    3.0976   -3.5087   38.4241 H   0  0  0  0  0  0  0  0  0  0  0  0
    4.2221   -2.1487   38.0963 H   0  0  0  0  0  0  0  0  0  0  0  0
    1.2521   -0.6676   34.3089 H   0  0  0  0  0  0  0  0  0  0  0  0
    0.0673   -1.3584   32.2644 H   0  0  0  0  0  0  0  0  0  0  0  0
   -1.0309   -7.8501   32.9121 H   0  0  0  0  0  0  0  0  0  0  0  0
  1  2  1  0
  2  3  1  0
  3  4  1  0
  4  5  1  0
  4  6  1  0
  6  7  1  0
  7  8  1  0
  8  9  1  0
  9 10  1  0
 10 11  1  0
 11 12  1  0
 12 13  2  0
 13 14  1  0
 14 15  2  0
 15 16  1  0
 16 17  2  0
 16 18  1  0
 18 19  1  0
 15 20  1  0
 20 21  2  0
  8 22  1  0
  3 23  1  0
 23 24  2  0
 23 25  2  0
 23 26  1  0
 22  4  1  0
 21 12  1  0
  1 27  1  0
  1 28  1  0
  1 29  1  0
  2 30  1  0
  2 31  1  0
  3 32  1  0
  5 33  1  0
  5 34  1  0
  6 35  1  0
  7 36  1  0
  8 37  1  0
  9 38  1  0
  9 39  1  0
 10 40  1  0
 10 41  1  0
 11 42  1  0
 11 43  1  0
 13 44  1  0
 14 45  1  0
 18 46  1  0
 19 47  1  0
 19 48  1  0
 19 49  1  0
 20 50  1  0
 21 51  1  0
 22 52  1  0
M  END
>  <Energy>  (132) 
-72.363686776263634

>  <compound_id>  (132) 
3948

>  <target_id>  (132) 
1

>  <reference_id>  (132) 
136

>  <inspiration_ids>  (132) 
[136, 168]

>  <energy_score>  (132) 
-18.84344539075382

>  <distance_score>  (132) 
2.174044892024255

>  <path>  (132) 
/opt/xchem-fragalysis-2/maxwin/BulkDock/SCRATCH/505735/C3948-P136/C3948-P136.minimised.mol

>  <scratch_subdir>  (132) 
/opt/xchem-fragalysis-2/maxwin/BulkDock/SCRATCH/505735/C3948-P136

>  <fragmenstein_runtime>  (132) 
3.8329036235809326

>  <fragmenstein_outcome>  (132) 
too moved

>  <fragmenstein_mode>  (132) 
expansion

>  <fragmenstein_error>  (132) 


$$$$
C3948-P168
     RDKit          3D

 52 53  0  0  0  0  0  0  0  0999 V2000
   -1.2169   -5.6614   36.4031 C   0  0  0  0  0  0  0  0  0  0  0  0
   -1.2589   -6.9087   35.5281 C   0  0  0  0  0  0  0  0  0  0  0  0
    0.0904   -7.2690   34.9234 C   0  0  0  0  0  0  0  0  0  0  0  0
    0.3795   -6.6880   33.5409 C   0  0  0  0  0  0  0  0  0  0  0  0
    1.7804   -6.6244   33.2843 N   0  0  0  0  0  0  0  0  0  0  0  0
   -0.1484   -5.3713   33.2981 N   0  0  0  0  0  0  0  0  0  0  0  0
   -1.1306   -5.5191   32.2746 N   0  0  0  0  0  0  0  0  0  0  0  0
   -0.5341   -6.4896   31.4028 C   0  0  0  0  0  0  0  0  0  0  0  0
    0.5887   -5.9451   30.4781 C   0  0  0  0  0  0  0  0  0  0  0  0
    0.4153   -4.5637   29.8328 C   0  0  0  0  0  0  0  0  0  0  0  0
    0.4432   -3.2821   30.7021 C   0  0  0  0  0  0  0  0  0  0  0  0
    1.5236   -3.0924   31.7345 C   0  0  0  0  0  0  0  0  0  0  0  0
    1.1991   -2.7293   33.0544 C   0  0  0  0  0  0  0  0  0  0  0  0
    2.1821   -2.5952   34.0358 C   0  0  0  0  0  0  0  0  0  0  0  0
    3.5155   -2.7786   33.6882 C   0  0  0  0  0  0  0  0  0  0  0  0
    4.5910   -2.7117   34.7129 C   0  0  0  0  0  0  0  0  0  0  0  0
    5.5054   -2.0169   34.5173 O   0  0  0  0  0  0  0  0  0  0  0  0
    4.2591   -3.6092   35.9202 N   0  0  0  0  0  0  0  0  0  0  0  0
    5.0239   -3.9117   37.0926 C   0  0  0  0  0  0  0  0  0  0  0  0
    3.8586   -3.0126   32.3548 C   0  0  0  0  0  0  0  0  0  0  0  0
    2.8682   -3.1853   31.3860 C   0  0  0  0  0  0  0  0  0  0  0  0
   -0.0929   -7.4730   32.3958 N   0  0  0  0  0  0  0  0  0  0  0  0
    1.4472   -6.9833   36.0821 S   0  0  0  0  0  0  0  0  0  0  0  0
    1.1222   -7.6360   37.3343 O   0  0  0  0  0  0  0  0  0  0  0  0
    1.8677   -5.5915   36.0707 O   0  0  0  0  0  0  0  0  0  0  0  0
    2.6922   -7.8147   35.5298 F   0  0  0  0  0  0  0  0  0  0  0  0
   -0.8437   -5.8976   37.4051 H   0  0  0  0  0  0  0  0  0  0  0  0
   -2.2134   -5.2547   36.5469 H   0  0  0  0  0  0  0  0  0  0  0  0
   -0.6104   -4.8445   36.0110 H   0  0  0  0  0  0  0  0  0  0  0  0
   -2.0117   -6.8247   34.7433 H   0  0  0  0  0  0  0  0  0  0  0  0
   -1.5825   -7.7491   36.1470 H   0  0  0  0  0  0  0  0  0  0  0  0
    0.0699   -8.3505   34.8505 H   0  0  0  0  0  0  0  0  0  0  0  0
    1.9656   -5.6468   33.0452 H   0  0  0  0  0  0  0  0  0  0  0  0
    1.8901   -7.1400   32.4166 H   0  0  0  0  0  0  0  0  0  0  0  0
   -0.5272   -4.9183   34.1253 H   0  0  0  0  0  0  0  0  0  0  0  0
   -1.3150   -4.6481   31.7896 H   0  0  0  0  0  0  0  0  0  0  0  0
   -1.2915   -6.9633   30.7726 H   0  0  0  0  0  0  0  0  0  0  0  0
    0.7032   -6.6771   29.6658 H   0  0  0  0  0  0  0  0  0  0  0  0
    1.5678   -5.9210   30.9530 H   0  0  0  0  0  0  0  0  0  0  0  0
   -0.5110   -4.5571   29.2459 H   0  0  0  0  0  0  0  0  0  0  0  0
    1.2216   -4.4645   29.0922 H   0  0  0  0  0  0  0  0  0  0  0  0
   -0.5381   -3.0993   31.1486 H   0  0  0  0  0  0  0  0  0  0  0  0
    0.5458   -2.4381   30.0029 H   0  0  0  0  0  0  0  0  0  0  0  0
    0.1596   -2.5682   33.3355 H   0  0  0  0  0  0  0  0  0  0  0  0
    1.8996   -2.3442   35.0547 H   0  0  0  0  0  0  0  0  0  0  0  0
    3.3334   -4.0189   35.7957 H   0  0  0  0  0  0  0  0  0  0  0  0
    5.9837   -3.3925   37.0491 H   0  0  0  0  0  0  0  0  0  0  0  0
    5.1807   -4.9917   37.1354 H   0  0  0  0  0  0  0  0  0  0  0  0
    4.4589   -3.5873   37.9690 H   0  0  0  0  0  0  0  0  0  0  0  0
    4.9079   -3.0980   32.0781 H   0  0  0  0  0  0  0  0  0  0  0  0
    3.1642   -3.3906   30.3601 H   0  0  0  0  0  0  0  0  0  0  0  0
   -0.9536   -7.9215   32.7077 H   0  0  0  0  0  0  0  0  0  0  0  0
  1  2  1  0
  2  3  1  0
  3  4  1  0
  4  5  1  0
  4  6  1  0
  6  7  1  0
  7  8  1  0
  8  9  1  0
  9 10  1  0
 10 11  1  0
 11 12  1  0
 12 13  2  0
 13 14  1  0
 14 15  2  0
 15 16  1  0
 16 17  2  0
 16 18  1  0
 18 19  1  0
 15 20  1  0
 20 21  2  0
  8 22  1  0
  3 23  1  0
 23 24  2  0
 23 25  2  0
 23 26  1  0
 22  4  1  0
 21 12  1  0
  1 27  1  0
  1 28  1  0
  1 29  1  0
  2 30  1  0
  2 31  1  0
  3 32  1  0
  5 33  1  0
  5 34  1  0
  6 35  1  0
  7 36  1  0
  8 37  1  0
  9 38  1  0
  9 39  1  0
 10 40  1  0
 10 41  1  0
 11 42  1  0
 11 43  1  0
 13 44  1  0
 14 45  1  0
 18 46  1  0
 19 47  1  0
 19 48  1  0
 19 49  1  0
 20 50  1  0
 21 51  1  0
 22 52  1  0
M  END
>  <Energy>  (133) 
-70.696087181933436

>  <compound_id>  (133) 
3948

>  <target_id>  (133) 
1

>  <reference_id>  (133) 
168

>  <inspiration_ids>  (133) 
[136, 168]

>  <energy_score>  (133) 
-17.175845796425612

>  <distance_score>  (133) 
2.4276595145998234

>  <path>  (133) 
/opt/xchem-fragalysis-2/maxwin/BulkDock/SCRATCH/505735/C3948-P168/C3948-P168.minimised.mol

>  <scratch_subdir>  (133) 
/opt/xchem-fragalysis-2/maxwin/BulkDock/SCRATCH/505735/C3948-P168

>  <fragmenstein_runtime>  (133) 
3.3783535957336426

>  <fragmenstein_outcome>  (133) 
too moved

>  <fragmenstein_mode>  (133) 
expansion

>  <fragmenstein_error>  (133) 


$$$$
C3949-P136
     RDKit          3D

 47 50  0  0  0  0  0  0  0  0999 V2000
    2.3458    2.6391   34.9629 C   0  0  0  0  0  0  0  0  0  0  0  0
    2.2845    1.2822   34.5035 N   0  0  0  0  0  0  0  0  0  0  0  0
    3.4038    0.2499   34.2841 C   0  0  0  0  0  0  0  0  0  0  0  0
    4.5437    0.3119   34.5141 O   0  0  0  0  0  0  0  0  0  0  0  0
    2.8665   -1.0177   33.7085 C   0  0  0  0  0  0  0  0  0  0  0  0
    3.3430   -2.2341   34.2124 C   0  0  0  0  0  0  0  0  0  0  0  0
    2.8876   -3.4420   33.6806 C   0  0  0  0  0  0  0  0  0  0  0  0
    1.9588   -3.4395   32.6350 C   0  0  0  0  0  0  0  0  0  0  0  0
    1.4587   -4.6997   32.0673 C   0  0  0  0  0  0  0  0  0  0  0  0
    0.5684   -5.3904   32.8247 C   0  0  0  0  0  0  0  0  0  0  0  0
   -0.0863   -6.5005   32.2936 N   0  0  0  0  0  0  0  0  0  0  0  0
   -0.9743   -7.4226   32.8300 C   0  0  0  0  0  0  0  0  0  0  0  0
   -1.2713   -7.5214   34.1497 N   0  0  0  0  0  0  0  0  0  0  0  0
   -1.4112   -8.2033   31.8628 N   0  0  0  0  0  0  0  0  0  0  0  0
   -0.7535   -7.8747   30.6992 N   0  0  0  0  0  0  0  0  0  0  0  0
    0.0761   -6.8934   30.9777 C   0  0  0  0  0  0  0  0  0  0  0  0
    1.0701   -6.2258   30.2120 C   0  0  0  0  0  0  0  0  0  0  0  0
    1.7963   -5.1989   30.7103 C   0  0  0  0  0  0  0  0  0  0  0  0
    2.8670   -4.5379   29.8245 C   0  0  0  0  0  0  0  0  0  0  0  0
    4.2452   -5.0845   30.0816 N   0  0  0  0  0  0  0  0  0  0  0  0
    5.0122   -5.8329   28.7317 S   0  0  0  0  0  0  0  0  0  0  0  0
    4.0987   -6.8630   28.2818 O   0  0  0  0  0  0  0  0  0  0  0  0
    5.4319   -4.7484   27.8757 O   0  0  0  0  0  0  0  0  0  0  0  0
    6.5348   -6.6747   29.2058 C   0  0  0  0  0  0  0  0  0  0  0  0
    7.3964   -6.6356   30.2921 C   0  0  0  0  0  0  0  0  0  0  0  0
    8.5321   -7.4609   30.0676 C   0  0  0  0  0  0  0  0  0  0  0  0
    8.5739   -8.1195   28.9137 N   0  0  0  0  0  0  0  0  0  0  0  0
    7.1966   -7.7578   28.0510 S   0  0  0  0  0  0  0  0  0  0  0  0
    1.4861   -2.2186   32.1290 C   0  0  0  0  0  0  0  0  0  0  0  0
    1.9459   -1.0095   32.6553 C   0  0  0  0  0  0  0  0  0  0  0  0
    1.7497    2.7245   35.8739 H   0  0  0  0  0  0  0  0  0  0  0  0
    1.9299    3.2869   34.1884 H   0  0  0  0  0  0  0  0  0  0  0  0
    3.3840    2.9113   35.1648 H   0  0  0  0  0  0  0  0  0  0  0  0
    1.3913    0.8680   34.2659 H   0  0  0  0  0  0  0  0  0  0  0  0
    4.0738   -2.2366   35.0194 H   0  0  0  0  0  0  0  0  0  0  0  0
    3.2668   -4.3772   34.0857 H   0  0  0  0  0  0  0  0  0  0  0  0
    0.2707   -5.0957   33.8250 H   0  0  0  0  0  0  0  0  0  0  0  0
   -0.6048   -7.1789   34.8330 H   0  0  0  0  0  0  0  0  0  0  0  0
   -1.5610   -8.4750   34.4191 H   0  0  0  0  0  0  0  0  0  0  0  0
    1.3041   -6.6140   29.2338 H   0  0  0  0  0  0  0  0  0  0  0  0
    2.6019   -4.6681   28.7678 H   0  0  0  0  0  0  0  0  0  0  0  0
    2.8922   -3.4548   29.9810 H   0  0  0  0  0  0  0  0  0  0  0  0
    4.8509   -4.3333   30.4223 H   0  0  0  0  0  0  0  0  0  0  0  0
    7.2370   -6.0257   31.1705 H   0  0  0  0  0  0  0  0  0  0  0  0
    9.3666   -7.5957   30.7452 H   0  0  0  0  0  0  0  0  0  0  0  0
    0.7595   -2.2005   31.3177 H   0  0  0  0  0  0  0  0  0  0  0  0
    1.5989   -0.0743   32.2225 H   0  0  0  0  0  0  0  0  0  0  0  0
  1  2  1  0
  2  3  1  0
  3  4  2  0
  3  5  1  0
  5  6  2  0
  6  7  1  0
  7  8  2  0
  8  9  1  0
  9 10  2  0
 10 11  1  0
 11 12  1  0
 12 13  1  0
 12 14  2  0
 14 15  1  0
 15 16  2  0
 16 17  1  0
 17 18  2  0
 18 19  1  0
 19 20  1  0
 20 21  1  0
 21 22  2  0
 21 23  2  0
 21 24  1  0
 24 25  2  0
 25 26  1  0
 26 27  2  0
 27 28  1  0
  8 29  1  0
 29 30  2  0
 30  5  1  0
 18  9  1  0
 28 24  1  0
 16 11  1  0
  1 31  1  0
  1 32  1  0
  1 33  1  0
  2 34  1  0
  6 35  1  0
  7 36  1  0
 10 37  1  0
 13 38  1  0
 13 39  1  0
 17 40  1  0
 19 41  1  0
 19 42  1  0
 20 43  1  0
 25 44  1  0
 26 45  1  0
 29 46  1  0
 30 47  1  0
M  END
>  <Energy>  (134) 
-20.131649500519799

>  <compound_id>  (134) 
3949

>  <target_id>  (134) 
1

>  <reference_id>  (134) 
136

>  <inspiration_ids>  (134) 
[136, 175]

>  <energy_score>  (134) 
-58.0496738866193

>  <distance_score>  (134) 
1.7980526794142653

>  <path>  (134) 
/opt/xchem-fragalysis-2/maxwin/BulkDock/SCRATCH/505735/C3949-P136/C3949-P136.minimised.mol

>  <scratch_subdir>  (134) 
/opt/xchem-fragalysis-2/maxwin/BulkDock/SCRATCH/505735/C3949-P136

>  <fragmenstein_runtime>  (134) 
7.163639783859253

>  <fragmenstein_outcome>  (134) 
too moved

>  <fragmenstein_mode>  (134) 
expansion

>  <fragmenstein_error>  (134) 


$$$$
C3949-P175
     RDKit          3D

 47 50  0  0  0  0  0  0  0  0999 V2000
    3.4835    1.4671   36.6185 C   0  0  0  0  0  0  0  0  0  0  0  0
    3.2354    0.3871   35.7080 N   0  0  0  0  0  0  0  0  0  0  0  0
    3.3517    0.3255   34.1758 C   0  0  0  0  0  0  0  0  0  0  0  0
    3.7405    1.1172   33.4162 O   0  0  0  0  0  0  0  0  0  0  0  0
    2.8852   -0.9909   33.6559 C   0  0  0  0  0  0  0  0  0  0  0  0
    3.3136   -2.1906   34.2362 C   0  0  0  0  0  0  0  0  0  0  0  0
    2.8858   -3.4113   33.7078 C   0  0  0  0  0  0  0  0  0  0  0  0
    2.0316   -3.4376   32.5983 C   0  0  0  0  0  0  0  0  0  0  0  0
    1.5532   -4.7131   32.0457 C   0  0  0  0  0  0  0  0  0  0  0  0
    0.6257   -5.3749   32.7876 C   0  0  0  0  0  0  0  0  0  0  0  0
   -0.0088   -6.5041   32.2714 N   0  0  0  0  0  0  0  0  0  0  0  0
   -0.9220   -7.4083   32.7972 C   0  0  0  0  0  0  0  0  0  0  0  0
   -1.2697   -7.4776   34.1065 N   0  0  0  0  0  0  0  0  0  0  0  0
   -1.3186   -8.2181   31.8366 N   0  0  0  0  0  0  0  0  0  0  0  0
   -0.6011   -7.9352   30.6976 N   0  0  0  0  0  0  0  0  0  0  0  0
    0.2175   -6.9473   30.9825 C   0  0  0  0  0  0  0  0  0  0  0  0
    1.2526   -6.3142   30.2451 C   0  0  0  0  0  0  0  0  0  0  0  0
    1.9527   -5.2623   30.7231 C   0  0  0  0  0  0  0  0  0  0  0  0
    3.0501   -4.6404   29.8317 C   0  0  0  0  0  0  0  0  0  0  0  0
    4.3986   -5.2736   30.0452 N   0  0  0  0  0  0  0  0  0  0  0  0
    5.1270   -6.0622   28.7063 S   0  0  0  0  0  0  0  0  0  0  0  0
    5.6498   -5.0260   27.8492 O   0  0  0  0  0  0  0  0  0  0  0  0
    4.1545   -7.0284   28.2281 O   0  0  0  0  0  0  0  0  0  0  0  0
    6.5551   -7.0694   29.1600 C   0  0  0  0  0  0  0  0  0  0  0  0
    7.0752   -8.2931   28.7611 C   0  0  0  0  0  0  0  0  0  0  0  0
    8.2186   -8.6467   29.5271 C   0  0  0  0  0  0  0  0  0  0  0  0
    8.6205   -7.7492   30.4160 N   0  0  0  0  0  0  0  0  0  0  0  0
    7.6340   -6.4235   30.3015 S   0  0  0  0  0  0  0  0  0  0  0  0
    1.6060   -2.2317   32.0220 C   0  0  0  0  0  0  0  0  0  0  0  0
    2.0424   -1.0116   32.5406 C   0  0  0  0  0  0  0  0  0  0  0  0
    2.5229    1.8504   36.9699 H   0  0  0  0  0  0  0  0  0  0  0  0
    4.0614    1.0867   37.4633 H   0  0  0  0  0  0  0  0  0  0  0  0
    4.0324    2.2591   36.1046 H   0  0  0  0  0  0  0  0  0  0  0  0
    2.7766   -0.4501   36.0461 H   0  0  0  0  0  0  0  0  0  0  0  0
    4.0031   -2.1831   35.0770 H   0  0  0  0  0  0  0  0  0  0  0  0
    3.2304   -4.3373   34.1628 H   0  0  0  0  0  0  0  0  0  0  0  0
    0.2829   -5.0431   33.7616 H   0  0  0  0  0  0  0  0  0  0  0  0
   -0.6184   -7.1347   34.8037 H   0  0  0  0  0  0  0  0  0  0  0  0
   -1.5620   -8.4327   34.3719 H   0  0  0  0  0  0  0  0  0  0  0  0
    1.5446   -6.7448   29.3030 H   0  0  0  0  0  0  0  0  0  0  0  0
    2.7608   -4.7312   28.7772 H   0  0  0  0  0  0  0  0  0  0  0  0
    3.1435   -3.5656   30.0158 H   0  0  0  0  0  0  0  0  0  0  0  0
    5.0498   -4.5744   30.4136 H   0  0  0  0  0  0  0  0  0  0  0  0
    6.6591   -8.8937   27.9718 H   0  0  0  0  0  0  0  0  0  0  0  0
    8.7928   -9.5616   29.4410 H   0  0  0  0  0  0  0  0  0  0  0  0
    0.9311   -2.2304   31.1673 H   0  0  0  0  0  0  0  0  0  0  0  0
    1.7224   -0.0782   32.0807 H   0  0  0  0  0  0  0  0  0  0  0  0
  1  2  1  0
  2  3  1  0
  3  4  2  0
  3  5  1  0
  5  6  2  0
  6  7  1  0
  7  8  2  0
  8  9  1  0
  9 10  2  0
 10 11  1  0
 11 12  1  0
 12 13  1  0
 12 14  2  0
 14 15  1  0
 15 16  2  0
 16 17  1  0
 17 18  2  0
 18 19  1  0
 19 20  1  0
 20 21  1  0
 21 22  2  0
 21 23  2  0
 21 24  1  0
 24 25  2  0
 25 26  1  0
 26 27  2  0
 27 28  1  0
  8 29  1  0
 29 30  2  0
 30  5  1  0
 18  9  1  0
 28 24  1  0
 16 11  1  0
  1 31  1  0
  1 32  1  0
  1 33  1  0
  2 34  1  0
  6 35  1  0
  7 36  1  0
 10 37  1  0
 13 38  1  0
 13 39  1  0
 17 40  1  0
 19 41  1  0
 19 42  1  0
 20 43  1  0
 25 44  1  0
 26 45  1  0
 29 46  1  0
 30 47  1  0
M  END
>  <Energy>  (135) 
-18.316585004326093

>  <compound_id>  (135) 
3949

>  <target_id>  (135) 
1

>  <reference_id>  (135) 
175

>  <inspiration_ids>  (135) 
[136, 175]

>  <energy_score>  (135) 
-56.23460939042382

>  <distance_score>  (135) 
1.831391730622769

>  <path>  (135) 
/opt/xchem-fragalysis-2/maxwin/BulkDock/SCRATCH/505735/C3949-P175/C3949-P175.minimised.mol

>  <scratch_subdir>  (135) 
/opt/xchem-fragalysis-2/maxwin/BulkDock/SCRATCH/505735/C3949-P175

>  <fragmenstein_runtime>  (135) 
4.946352005004883

>  <fragmenstein_outcome>  (135) 
too moved

>  <fragmenstein_mode>  (135) 
expansion

>  <fragmenstein_error>  (135) 


$$$$
C3949-P136
     RDKit          3D

 47 50  0  0  0  0  0  0  0  0999 V2000
    2.6674    2.3896   35.6599 C   0  0  0  0  0  0  0  0  0  0  0  0
    2.3375    1.1591   35.0014 N   0  0  0  0  0  0  0  0  0  0  0  0
    3.2355    0.1407   34.2788 C   0  0  0  0  0  0  0  0  0  0  0  0
    4.3736    0.1764   34.0366 O   0  0  0  0  0  0  0  0  0  0  0  0
    2.4520   -1.0499   33.8396 C   0  0  0  0  0  0  0  0  0  0  0  0
    3.0007   -2.3219   34.0265 C   0  0  0  0  0  0  0  0  0  0  0  0
    2.2990   -3.4539   33.6051 C   0  0  0  0  0  0  0  0  0  0  0  0
    1.0444   -3.3234   32.9905 C   0  0  0  0  0  0  0  0  0  0  0  0
    0.3597   -4.5148   32.4551 C   0  0  0  0  0  0  0  0  0  0  0  0
   -0.1248   -5.4140   33.3410 C   0  0  0  0  0  0  0  0  0  0  0  0
   -0.6913   -6.5983   32.8770 N   0  0  0  0  0  0  0  0  0  0  0  0
   -1.2963   -7.6558   33.5179 C   0  0  0  0  0  0  0  0  0  0  0  0
   -1.4305   -7.7647   34.8611 N   0  0  0  0  0  0  0  0  0  0  0  0
   -1.7178   -8.5158   32.6159 N   0  0  0  0  0  0  0  0  0  0  0  0
   -1.3623   -8.0815   31.3725 N   0  0  0  0  0  0  0  0  0  0  0  0
   -0.7479   -6.9387   31.5398 C   0  0  0  0  0  0  0  0  0  0  0  0
   -0.2493   -6.0144   30.6109 C   0  0  0  0  0  0  0  0  0  0  0  0
    0.2224   -4.8187   31.0107 C   0  0  0  0  0  0  0  0  0  0  0  0
    0.5659   -3.8075   29.9511 C   0  0  0  0  0  0  0  0  0  0  0  0
    1.9777   -3.5177   30.0115 N   0  0  0  0  0  0  0  0  0  0  0  0
    3.0852   -4.6095   29.4236 S   0  0  0  0  0  0  0  0  0  0  0  0
    2.4395   -5.8392   29.0302 O   0  0  0  0  0  0  0  0  0  0  0  0
    4.2033   -4.5711   30.3365 O   0  0  0  0  0  0  0  0  0  0  0  0
    3.6493   -3.8449   27.9792 C   0  0  0  0  0  0  0  0  0  0  0  0
    3.5667   -2.5578   27.4930 C   0  0  0  0  0  0  0  0  0  0  0  0
    4.2273   -2.4821   26.2490 C   0  0  0  0  0  0  0  0  0  0  0  0
    4.7072   -3.6234   25.7733 N   0  0  0  0  0  0  0  0  0  0  0  0
    4.5309   -4.8067   26.9068 S   0  0  0  0  0  0  0  0  0  0  0  0
    0.5064   -2.0449   32.7983 C   0  0  0  0  0  0  0  0  0  0  0  0
    1.2127   -0.9102   33.2067 C   0  0  0  0  0  0  0  0  0  0  0  0
    3.6809    2.6901   35.3857 H   0  0  0  0  0  0  0  0  0  0  0  0
    1.9469    3.1523   35.3575 H   0  0  0  0  0  0  0  0  0  0  0  0
    2.6075    2.2310   36.7389 H   0  0  0  0  0  0  0  0  0  0  0  0
    1.4085    0.7714   35.1128 H   0  0  0  0  0  0  0  0  0  0  0  0
    3.9813   -2.4302   34.4872 H   0  0  0  0  0  0  0  0  0  0  0  0
    2.7553   -4.4339   33.7343 H   0  0  0  0  0  0  0  0  0  0  0  0
   -0.1010   -5.2756   34.4154 H   0  0  0  0  0  0  0  0  0  0  0  0
   -0.6948   -7.3927   35.4512 H   0  0  0  0  0  0  0  0  0  0  0  0
   -1.5691   -8.7607   35.1226 H   0  0  0  0  0  0  0  0  0  0  0  0
   -0.3482   -6.2685   29.5694 H   0  0  0  0  0  0  0  0  0  0  0  0
    0.2956   -4.1366   28.9417 H   0  0  0  0  0  0  0  0  0  0  0  0
   -0.0005   -2.8843   30.1119 H   0  0  0  0  0  0  0  0  0  0  0  0
    2.3215   -3.0550   30.8524 H   0  0  0  0  0  0  0  0  0  0  0  0
    3.0845   -1.7353   28.0033 H   0  0  0  0  0  0  0  0  0  0  0  0
    4.3536   -1.5955   25.6356 H   0  0  0  0  0  0  0  0  0  0  0  0
   -0.4625   -1.9195   32.3181 H   0  0  0  0  0  0  0  0  0  0  0  0
    0.7954    0.0752   33.0128 H   0  0  0  0  0  0  0  0  0  0  0  0
  1  2  1  0
  2  3  1  0
  3  4  2  0
  3  5  1  0
  5  6  2  0
  6  7  1  0
  7  8  2  0
  8  9  1  0
  9 10  2  0
 10 11  1  0
 11 12  1  0
 12 13  1  0
 12 14  2  0
 14 15  1  0
 15 16  2  0
 16 17  1  0
 17 18  2  0
 18 19  1  0
 19 20  1  0
 20 21  1  0
 21 22  2  0
 21 23  2  0
 21 24  1  0
 24 25  2  0
 25 26  1  0
 26 27  2  0
 27 28  1  0
  8 29  1  0
 29 30  2  0
 30  5  1  0
 18  9  1  0
 28 24  1  0
 16 11  1  0
  1 31  1  0
  1 32  1  0
  1 33  1  0
  2 34  1  0
  6 35  1  0
  7 36  1  0
 10 37  1  0
 13 38  1  0
 13 39  1  0
 17 40  1  0
 19 41  1  0
 19 42  1  0
 20 43  1  0
 25 44  1  0
 26 45  1  0
 29 46  1  0
 30 47  1  0
M  END
>  <Energy>  (136) 
-22.567061058827946

>  <compound_id>  (136) 
3949

>  <target_id>  (136) 
1

>  <reference_id>  (136) 
136

>  <inspiration_ids>  (136) 
[136, 177]

>  <energy_score>  (136) 
-60.48508544492654

>  <distance_score>  (136) 
1.4864063430128023

>  <path>  (136) 
/opt/xchem-fragalysis-2/maxwin/BulkDock/SCRATCH/505735/C3949-P136/C3949-P136.minimised.mol

>  <scratch_subdir>  (136) 
/opt/xchem-fragalysis-2/maxwin/BulkDock/SCRATCH/505735/C3949-P136

>  <fragmenstein_runtime>  (136) 
5.693739175796509

>  <fragmenstein_outcome>  (136) 
too moved

>  <fragmenstein_mode>  (136) 
expansion

>  <fragmenstein_error>  (136) 


$$$$
C3949-P177
     RDKit          3D

 47 50  0  0  0  0  0  0  0  0999 V2000
    2.2969    2.3031   36.2058 C   0  0  0  0  0  0  0  0  0  0  0  0
    2.0592    1.1555   35.3806 N   0  0  0  0  0  0  0  0  0  0  0  0
    3.0334    0.3059   34.5449 C   0  0  0  0  0  0  0  0  0  0  0  0
    4.1693    0.4492   34.3334 O   0  0  0  0  0  0  0  0  0  0  0  0
    2.3320   -0.8538   33.9190 C   0  0  0  0  0  0  0  0  0  0  0  0
    2.9414   -2.1097   33.9717 C   0  0  0  0  0  0  0  0  0  0  0  0
    2.3072   -3.2142   33.3997 C   0  0  0  0  0  0  0  0  0  0  0  0
    1.0609   -3.0738   32.7672 C   0  0  0  0  0  0  0  0  0  0  0  0
    0.4143   -4.2460   32.1499 C   0  0  0  0  0  0  0  0  0  0  0  0
   -0.0645   -5.1629   33.0168 C   0  0  0  0  0  0  0  0  0  0  0  0
   -0.5932   -6.3475   32.5332 N   0  0  0  0  0  0  0  0  0  0  0  0
   -1.2051   -7.4031   33.1664 C   0  0  0  0  0  0  0  0  0  0  0  0
   -1.3759   -7.4961   34.5069 N   0  0  0  0  0  0  0  0  0  0  0  0
   -1.5916   -8.2751   32.2628 N   0  0  0  0  0  0  0  0  0  0  0  0
   -1.2264   -7.8290   31.0227 N   0  0  0  0  0  0  0  0  0  0  0  0
   -0.6053   -6.6873   31.1940 C   0  0  0  0  0  0  0  0  0  0  0  0
   -0.1019   -5.7456   30.2688 C   0  0  0  0  0  0  0  0  0  0  0  0
    0.2950   -4.5245   30.6944 C   0  0  0  0  0  0  0  0  0  0  0  0
    0.4504   -3.4550   29.6426 C   0  0  0  0  0  0  0  0  0  0  0  0
    1.5144   -2.5198   29.9167 N   0  0  0  0  0  0  0  0  0  0  0  0
    3.1102   -2.9479   29.6969 S   0  0  0  0  0  0  0  0  0  0  0  0
    3.3677   -4.1711   30.4126 O   0  0  0  0  0  0  0  0  0  0  0  0
    3.8791   -1.7454   29.9187 O   0  0  0  0  0  0  0  0  0  0  0  0
    3.2260   -3.2316   27.9906 C   0  0  0  0  0  0  0  0  0  0  0  0
    2.9081   -2.4557   26.8936 C   0  0  0  0  0  0  0  0  0  0  0  0
    2.9505   -3.2491   25.7287 C   0  0  0  0  0  0  0  0  0  0  0  0
    3.2960   -4.5195   25.9075 N   0  0  0  0  0  0  0  0  0  0  0  0
    3.7168   -4.7627   27.4768 S   0  0  0  0  0  0  0  0  0  0  0  0
    0.4634   -1.8107   32.7075 C   0  0  0  0  0  0  0  0  0  0  0  0
    1.1053   -0.7000   33.2628 C   0  0  0  0  0  0  0  0  0  0  0  0
    3.3602    2.5516   36.1911 H   0  0  0  0  0  0  0  0  0  0  0  0
    1.7093    3.1378   35.8175 H   0  0  0  0  0  0  0  0  0  0  0  0
    1.9781    2.0708   37.2242 H   0  0  0  0  0  0  0  0  0  0  0  0
    1.1218    0.7874   35.2840 H   0  0  0  0  0  0  0  0  0  0  0  0
    3.9156   -2.2243   34.4423 H   0  0  0  0  0  0  0  0  0  0  0  0
    2.8094   -4.1793   33.4204 H   0  0  0  0  0  0  0  0  0  0  0  0
   -0.0585   -5.0309   34.0923 H   0  0  0  0  0  0  0  0  0  0  0  0
   -0.7047   -7.0409   35.1166 H   0  0  0  0  0  0  0  0  0  0  0  0
   -1.5091   -8.4792   34.7814 H   0  0  0  0  0  0  0  0  0  0  0  0
   -0.1980   -5.9889   29.2140 H   0  0  0  0  0  0  0  0  0  0  0  0
    0.5603   -3.8704   28.6348 H   0  0  0  0  0  0  0  0  0  0  0  0
   -0.4847   -2.8793   29.6180 H   0  0  0  0  0  0  0  0  0  0  0  0
    1.3512   -1.5480   29.6591 H   0  0  0  0  0  0  0  0  0  0  0  0
    2.6189   -1.4144   26.9365 H   0  0  0  0  0  0  0  0  0  0  0  0
    2.7277   -2.9234   24.7187 H   0  0  0  0  0  0  0  0  0  0  0  0
   -0.4952   -1.6790   32.2122 H   0  0  0  0  0  0  0  0  0  0  0  0
    0.6483    0.2811   33.1656 H   0  0  0  0  0  0  0  0  0  0  0  0
  1  2  1  0
  2  3  1  0
  3  4  2  0
  3  5  1  0
  5  6  2  0
  6  7  1  0
  7  8  2  0
  8  9  1  0
  9 10  2  0
 10 11  1  0
 11 12  1  0
 12 13  1  0
 12 14  2  0
 14 15  1  0
 15 16  2  0
 16 17  1  0
 17 18  2  0
 18 19  1  0
 19 20  1  0
 20 21  1  0
 21 22  2  0
 21 23  2  0
 21 24  1  0
 24 25  2  0
 25 26  1  0
 26 27  2  0
 27 28  1  0
  8 29  1  0
 29 30  2  0
 30  5  1  0
 18  9  1  0
 28 24  1  0
 16 11  1  0
  1 31  1  0
  1 32  1  0
  1 33  1  0
  2 34  1  0
  6 35  1  0
  7 36  1  0
 10 37  1  0
 13 38  1  0
 13 39  1  0
 17 40  1  0
 19 41  1  0
 19 42  1  0
 20 43  1  0
 25 44  1  0
 26 45  1  0
 29 46  1  0
 30 47  1  0
M  END
>  <Energy>  (137) 
-14.031066601699564

>  <compound_id>  (137) 
3949

>  <target_id>  (137) 
1

>  <reference_id>  (137) 
177

>  <inspiration_ids>  (137) 
[136, 177]

>  <energy_score>  (137) 
-51.9490909877988

>  <distance_score>  (137) 
1.3622168215556159

>  <path>  (137) 
/opt/xchem-fragalysis-2/maxwin/BulkDock/SCRATCH/505735/C3949-P177/C3949-P177.minimised.mol

>  <scratch_subdir>  (137) 
/opt/xchem-fragalysis-2/maxwin/BulkDock/SCRATCH/505735/C3949-P177

>  <fragmenstein_runtime>  (137) 
7.047192573547363

>  <fragmenstein_outcome>  (137) 
too moved

>  <fragmenstein_mode>  (137) 
expansion

>  <fragmenstein_error>  (137) 


$$$$
C3950-P136
     RDKit          3D

 52 55  0  0  0  0  0  0  0  0999 V2000
   -3.6391    1.4233   37.1722 C   0  0  0  0  0  0  0  0  0  0  0  0
   -2.8550    0.6465   36.2561 N   0  0  0  0  0  0  0  0  0  0  0  0
   -2.9010    0.5498   34.8313 C   0  0  0  0  0  0  0  0  0  0  0  0
   -3.5518    1.1499   34.0294 O   0  0  0  0  0  0  0  0  0  0  0  0
   -1.9660   -0.4866   34.2742 C   0  0  0  0  0  0  0  0  0  0  0  0
   -0.7503   -0.8116   34.8782 C   0  0  0  0  0  0  0  0  0  0  0  0
   -0.0073   -1.9061   34.4198 C   0  0  0  0  0  0  0  0  0  0  0  0
   -0.4455   -2.6950   33.3537 C   0  0  0  0  0  0  0  0  0  0  0  0
    0.1653   -3.9936   32.9601 C   0  0  0  0  0  0  0  0  0  0  0  0
   -0.6841   -5.0364   32.8181 C   0  0  0  0  0  0  0  0  0  0  0  0
   -0.3085   -6.1281   32.0543 N   0  0  0  0  0  0  0  0  0  0  0  0
   -0.9076   -7.3389   31.7877 C   0  0  0  0  0  0  0  0  0  0  0  0
   -1.8357   -7.8890   32.5908 N   0  0  0  0  0  0  0  0  0  0  0  0
   -0.3987   -7.8227   30.6780 N   0  0  0  0  0  0  0  0  0  0  0  0
    0.7031   -7.0521   30.3501 N   0  0  0  0  0  0  0  0  0  0  0  0
    0.8174   -6.1116   31.2620 C   0  0  0  0  0  0  0  0  0  0  0  0
    1.8393   -5.1980   31.6454 C   0  0  0  0  0  0  0  0  0  0  0  0
    1.5706   -4.2759   32.6068 C   0  0  0  0  0  0  0  0  0  0  0  0
    2.6875   -3.7170   33.4554 C   0  0  0  0  0  0  0  0  0  0  0  0
    3.0643   -4.7357   34.4607 N   0  0  0  0  0  0  0  0  0  0  0  0
    2.7563   -4.5453   36.1098 S   0  0  0  0  0  0  0  0  0  0  0  0
    3.8689   -5.1885   36.7742 O   0  0  0  0  0  0  0  0  0  0  0  0
    2.3867   -3.1815   36.3973 O   0  0  0  0  0  0  0  0  0  0  0  0
    1.3459   -5.5701   36.3566 C   0  0  0  0  0  0  0  0  0  0  0  0
    1.4927   -6.8614   36.8438 C   0  0  0  0  0  0  0  0  0  0  0  0
    0.3895   -7.7040   36.8202 C   0  0  0  0  0  0  0  0  0  0  0  0
   -0.7819   -7.3015   36.2042 C   0  0  0  0  0  0  0  0  0  0  0  0
   -1.7641   -8.1773   35.8532 O   0  0  0  0  0  0  0  0  0  0  0  0
   -0.9769   -5.9664   35.9285 C   0  0  0  0  0  0  0  0  0  0  0  0
    0.0831   -5.0827   36.0506 C   0  0  0  0  0  0  0  0  0  0  0  0
   -1.5798   -2.2488   32.6529 C   0  0  0  0  0  0  0  0  0  0  0  0
   -2.3380   -1.1674   33.1130 C   0  0  0  0  0  0  0  0  0  0  0  0
   -4.3467    0.7575   37.6718 H   0  0  0  0  0  0  0  0  0  0  0  0
   -4.1830    2.1986   36.6279 H   0  0  0  0  0  0  0  0  0  0  0  0
   -2.9712    1.8722   37.9104 H   0  0  0  0  0  0  0  0  0  0  0  0
   -2.2471   -0.0766   36.6159 H   0  0  0  0  0  0  0  0  0  0  0  0
   -0.3694   -0.2450   35.7240 H   0  0  0  0  0  0  0  0  0  0  0  0
    0.8841   -2.1434   34.9798 H   0  0  0  0  0  0  0  0  0  0  0  0
   -1.7078   -5.0327   33.1511 H   0  0  0  0  0  0  0  0  0  0  0  0
   -1.6978   -7.8268   33.6022 H   0  0  0  0  0  0  0  0  0  0  0  0
   -2.1344   -8.8348   32.3545 H   0  0  0  0  0  0  0  0  0  0  0  0
    2.8504   -5.4208   31.3325 H   0  0  0  0  0  0  0  0  0  0  0  0
    2.4832   -2.7427   33.8898 H   0  0  0  0  0  0  0  0  0  0  0  0
    3.5703   -3.5492   32.8236 H   0  0  0  0  0  0  0  0  0  0  0  0
    3.9846   -5.1531   34.3258 H   0  0  0  0  0  0  0  0  0  0  0  0
    2.4436   -7.2216   37.2259 H   0  0  0  0  0  0  0  0  0  0  0  0
    0.4504   -8.6717   37.2904 H   0  0  0  0  0  0  0  0  0  0  0  0
   -1.4323   -9.1112   35.9392 H   0  0  0  0  0  0  0  0  0  0  0  0
   -1.9352   -5.6101   35.5836 H   0  0  0  0  0  0  0  0  0  0  0  0
   -0.0777   -4.0381   35.8354 H   0  0  0  0  0  0  0  0  0  0  0  0
   -1.9259   -2.7715   31.7628 H   0  0  0  0  0  0  0  0  0  0  0  0
   -3.2496   -0.8899   32.5867 H   0  0  0  0  0  0  0  0  0  0  0  0
  1  2  1  0
  2  3  1  0
  3  4  2  0
  3  5  1  0
  5  6  2  0
  6  7  1  0
  7  8  2  0
  8  9  1  0
  9 10  2  0
 10 11  1  0
 11 12  1  0
 12 13  1  0
 12 14  2  0
 14 15  1  0
 15 16  2  0
 16 17  1  0
 17 18  2  0
 18 19  1  0
 19 20  1  0
 20 21  1  0
 21 22  2  0
 21 23  2  0
 21 24  1  0
 24 25  2  0
 25 26  1  0
 26 27  2  0
 27 28  1  0
 27 29  1  0
 29 30  2  0
  8 31  1  0
 31 32  2  0
 32  5  1  0
 18  9  1  0
 30 24  1  0
 16 11  1  0
  1 33  1  0
  1 34  1  0
  1 35  1  0
  2 36  1  0
  6 37  1  0
  7 38  1  0
 10 39  1  0
 13 40  1  0
 13 41  1  0
 17 42  1  0
 19 43  1  0
 19 44  1  0
 20 45  1  0
 25 46  1  0
 26 47  1  0
 28 48  1  0
 29 49  1  0
 30 50  1  0
 31 51  1  0
 32 52  1  0
M  END
>  <Energy>  (138) 
16.876473815771963

>  <compound_id>  (138) 
3950

>  <target_id>  (138) 
1

>  <reference_id>  (138) 
136

>  <inspiration_ids>  (138) 
[136, 183]

>  <energy_score>  (138) 
-33.7231873120776

>  <distance_score>  (138) 
3.6383097090278045

>  <path>  (138) 
/opt/xchem-fragalysis-2/maxwin/BulkDock/SCRATCH/505735/C3950-P136/C3950-P136.minimised.mol

>  <scratch_subdir>  (138) 
/opt/xchem-fragalysis-2/maxwin/BulkDock/SCRATCH/505735/C3950-P136

>  <fragmenstein_runtime>  (138) 
8.324812412261963

>  <fragmenstein_outcome>  (138) 
too moved

>  <fragmenstein_mode>  (138) 
expansion

>  <fragmenstein_error>  (138) 


$$$$
C3950-P183
     RDKit          3D

 52 55  0  0  0  0  0  0  0  0999 V2000
   -0.4919    3.5359   35.0347 C   0  0  0  0  0  0  0  0  0  0  0  0
   -0.2938    2.1177   34.9544 N   0  0  0  0  0  0  0  0  0  0  0  0
    0.5546    1.2468   35.7024 C   0  0  0  0  0  0  0  0  0  0  0  0
    1.2614    1.4620   36.6414 O   0  0  0  0  0  0  0  0  0  0  0  0
    0.5076   -0.1630   35.2114 C   0  0  0  0  0  0  0  0  0  0  0  0
    0.4000   -1.2009   36.1432 C   0  0  0  0  0  0  0  0  0  0  0  0
    0.3447   -2.5305   35.7154 C   0  0  0  0  0  0  0  0  0  0  0  0
    0.4279   -2.8348   34.3551 C   0  0  0  0  0  0  0  0  0  0  0  0
    0.4309   -4.2184   33.8531 C   0  0  0  0  0  0  0  0  0  0  0  0
   -0.5598   -5.0842   34.1320 C   0  0  0  0  0  0  0  0  0  0  0  0
   -0.6320   -6.2614   33.3926 N   0  0  0  0  0  0  0  0  0  0  0  0
   -1.3065   -7.4441   33.5823 C   0  0  0  0  0  0  0  0  0  0  0  0
   -1.8163   -7.8049   34.7900 N   0  0  0  0  0  0  0  0  0  0  0  0
   -1.2490   -8.1473   32.4689 N   0  0  0  0  0  0  0  0  0  0  0  0
   -0.3453   -7.5422   31.6186 N   0  0  0  0  0  0  0  0  0  0  0  0
    0.1056   -6.4751   32.2371 C   0  0  0  0  0  0  0  0  0  0  0  0
    1.2747   -5.6821   32.0748 C   0  0  0  0  0  0  0  0  0  0  0  0
    1.5235   -4.7608   33.0336 C   0  0  0  0  0  0  0  0  0  0  0  0
    2.9095   -4.5831   33.6027 C   0  0  0  0  0  0  0  0  0  0  0  0
    3.2198   -5.7905   34.4367 N   0  0  0  0  0  0  0  0  0  0  0  0
    2.5498   -5.8641   36.0020 S   0  0  0  0  0  0  0  0  0  0  0  0
    2.6176   -4.5651   36.6218 O   0  0  0  0  0  0  0  0  0  0  0  0
    1.3170   -6.6130   35.8795 O   0  0  0  0  0  0  0  0  0  0  0  0
    3.7079   -6.9036   36.8504 C   0  0  0  0  0  0  0  0  0  0  0  0
    3.2403   -7.9439   37.6604 C   0  0  0  0  0  0  0  0  0  0  0  0
    4.1555   -8.7635   38.3240 C   0  0  0  0  0  0  0  0  0  0  0  0
    5.5203   -8.5378   38.1617 C   0  0  0  0  0  0  0  0  0  0  0  0
    6.4472   -9.3150   38.7896 O   0  0  0  0  0  0  0  0  0  0  0  0
    5.9873   -7.5056   37.3526 C   0  0  0  0  0  0  0  0  0  0  0  0
    5.0788   -6.6775   36.6940 C   0  0  0  0  0  0  0  0  0  0  0  0
    0.5571   -1.7881   33.4246 C   0  0  0  0  0  0  0  0  0  0  0  0
    0.6008   -0.4581   33.8474 C   0  0  0  0  0  0  0  0  0  0  0  0
    0.1505    3.9576   35.8110 H   0  0  0  0  0  0  0  0  0  0  0  0
   -0.2483    3.9754   34.0648 H   0  0  0  0  0  0  0  0  0  0  0  0
   -1.5412    3.7267   35.2704 H   0  0  0  0  0  0  0  0  0  0  0  0
   -0.8102    1.5719   34.2748 H   0  0  0  0  0  0  0  0  0  0  0  0
    0.3575   -0.9752   37.2071 H   0  0  0  0  0  0  0  0  0  0  0  0
    0.2618   -3.3193   36.4599 H   0  0  0  0  0  0  0  0  0  0  0  0
   -1.3366   -4.9053   34.8597 H   0  0  0  0  0  0  0  0  0  0  0  0
   -1.8787   -8.8375   34.8591 H   0  0  0  0  0  0  0  0  0  0  0  0
   -1.2548   -7.5046   35.5883 H   0  0  0  0  0  0  0  0  0  0  0  0
    2.0578   -6.0944   31.4575 H   0  0  0  0  0  0  0  0  0  0  0  0
    3.0528   -3.6632   34.1760 H   0  0  0  0  0  0  0  0  0  0  0  0
    3.6427   -4.5529   32.7876 H   0  0  0  0  0  0  0  0  0  0  0  0
    2.9356   -6.6380   33.9490 H   0  0  0  0  0  0  0  0  0  0  0  0
    2.1727   -8.1170   37.7891 H   0  0  0  0  0  0  0  0  0  0  0  0
    3.7868   -9.5643   38.9578 H   0  0  0  0  0  0  0  0  0  0  0  0
    5.9912   -9.9301   39.3870 H   0  0  0  0  0  0  0  0  0  0  0  0
    7.0565   -7.3414   37.2462 H   0  0  0  0  0  0  0  0  0  0  0  0
    5.4426   -5.8595   36.0770 H   0  0  0  0  0  0  0  0  0  0  0  0
    0.6255   -2.0021   32.3594 H   0  0  0  0  0  0  0  0  0  0  0  0
    0.7290    0.3325   33.1127 H   0  0  0  0  0  0  0  0  0  0  0  0
  1  2  1  0
  2  3  1  0
  3  4  2  0
  3  5  1  0
  5  6  2  0
  6  7  1  0
  7  8  2  0
  8  9  1  0
  9 10  2  0
 10 11  1  0
 11 12  1  0
 12 13  1  0
 12 14  2  0
 14 15  1  0
 15 16  2  0
 16 17  1  0
 17 18  2  0
 18 19  1  0
 19 20  1  0
 20 21  1  0
 21 22  2  0
 21 23  2  0
 21 24  1  0
 24 25  2  0
 25 26  1  0
 26 27  2  0
 27 28  1  0
 27 29  1  0
 29 30  2  0
  8 31  1  0
 31 32  2  0
 32  5  1  0
 18  9  1  0
 30 24  1  0
 16 11  1  0
  1 33  1  0
  1 34  1  0
  1 35  1  0
  2 36  1  0
  6 37  1  0
  7 38  1  0
 10 39  1  0
 13 40  1  0
 13 41  1  0
 17 42  1  0
 19 43  1  0
 19 44  1  0
 20 45  1  0
 25 46  1  0
 26 47  1  0
 28 48  1  0
 29 49  1  0
 30 50  1  0
 31 51  1  0
 32 52  1  0
M  END
>  <Energy>  (139) 
10.14512600681463

>  <compound_id>  (139) 
3950

>  <target_id>  (139) 
1

>  <reference_id>  (139) 
183

>  <inspiration_ids>  (139) 
[136, 183]

>  <energy_score>  (139) 
-40.45453512103514

>  <distance_score>  (139) 
2.555371887715291

>  <path>  (139) 
/opt/xchem-fragalysis-2/maxwin/BulkDock/SCRATCH/505735/C3950-P183/C3950-P183.minimised.mol

>  <scratch_subdir>  (139) 
/opt/xchem-fragalysis-2/maxwin/BulkDock/SCRATCH/505735/C3950-P183

>  <fragmenstein_runtime>  (139) 
8.148242712020874

>  <fragmenstein_outcome>  (139) 
too moved

>  <fragmenstein_mode>  (139) 
expansion

>  <fragmenstein_error>  (139) 


$$$$
C3950-P136
     RDKit          3D

 52 55  0  0  0  0  0  0  0  0999 V2000
    4.1270    2.1095   34.8373 C   0  0  0  0  0  0  0  0  0  0  0  0
    3.6023    0.7909   34.6337 N   0  0  0  0  0  0  0  0  0  0  0  0
    4.1907   -0.5851   34.9910 C   0  0  0  0  0  0  0  0  0  0  0  0
    5.1586   -0.8635   35.5758 O   0  0  0  0  0  0  0  0  0  0  0  0
    3.3292   -1.6871   34.4726 C   0  0  0  0  0  0  0  0  0  0  0  0
    3.9394   -2.7953   33.8811 C   0  0  0  0  0  0  0  0  0  0  0  0
    3.1623   -3.8341   33.3606 C   0  0  0  0  0  0  0  0  0  0  0  0
    1.7682   -3.7859   33.4503 C   0  0  0  0  0  0  0  0  0  0  0  0
    0.9465   -4.8117   32.7838 C   0  0  0  0  0  0  0  0  0  0  0  0
    0.2545   -5.6756   33.5541 C   0  0  0  0  0  0  0  0  0  0  0  0
   -0.4799   -6.6919   32.9515 N   0  0  0  0  0  0  0  0  0  0  0  0
   -1.2792   -7.6816   33.4755 C   0  0  0  0  0  0  0  0  0  0  0  0
   -1.5089   -7.8418   34.8028 N   0  0  0  0  0  0  0  0  0  0  0  0
   -1.7327   -8.4311   32.4922 N   0  0  0  0  0  0  0  0  0  0  0  0
   -1.2478   -7.9557   31.3022 N   0  0  0  0  0  0  0  0  0  0  0  0
   -0.5033   -6.9146   31.5862 C   0  0  0  0  0  0  0  0  0  0  0  0
    0.1783   -5.9945   30.7660 C   0  0  0  0  0  0  0  0  0  0  0  0
    0.8164   -4.9397   31.3173 C   0  0  0  0  0  0  0  0  0  0  0  0
    1.2705   -3.8112   30.4379 C   0  0  0  0  0  0  0  0  0  0  0  0
    0.1063   -3.1934   29.8114 N   0  0  0  0  0  0  0  0  0  0  0  0
   -0.9155   -2.2463   30.7554 S   0  0  0  0  0  0  0  0  0  0  0  0
   -2.1813   -2.9368   30.8400 O   0  0  0  0  0  0  0  0  0  0  0  0
   -0.2465   -1.7848   31.9461 O   0  0  0  0  0  0  0  0  0  0  0  0
   -1.0285   -0.8513   29.6803 C   0  0  0  0  0  0  0  0  0  0  0  0
   -1.6027   -1.0031   28.4220 C   0  0  0  0  0  0  0  0  0  0  0  0
   -1.6011    0.0748   27.5371 C   0  0  0  0  0  0  0  0  0  0  0  0
   -1.0134    1.2767   27.9040 C   0  0  0  0  0  0  0  0  0  0  0  0
   -1.0247    2.3473   27.0636 O   0  0  0  0  0  0  0  0  0  0  0  0
   -0.4000    1.4142   29.1386 C   0  0  0  0  0  0  0  0  0  0  0  0
   -0.4198    0.3541   30.0440 C   0  0  0  0  0  0  0  0  0  0  0  0
    1.1711   -2.7114   34.1158 C   0  0  0  0  0  0  0  0  0  0  0  0
    1.9404   -1.6502   34.5985 C   0  0  0  0  0  0  0  0  0  0  0  0
    4.4710    2.4969   33.8757 H   0  0  0  0  0  0  0  0  0  0  0  0
    3.3312    2.7462   35.2292 H   0  0  0  0  0  0  0  0  0  0  0  0
    4.9628    2.0656   35.5389 H   0  0  0  0  0  0  0  0  0  0  0  0
    2.7875    0.6674   34.0441 H   0  0  0  0  0  0  0  0  0  0  0  0
    5.0244   -2.8397   33.8055 H   0  0  0  0  0  0  0  0  0  0  0  0
    3.6576   -4.6671   32.8673 H   0  0  0  0  0  0  0  0  0  0  0  0
    0.2424   -5.6343   34.6362 H   0  0  0  0  0  0  0  0  0  0  0  0
   -1.6876   -8.8413   35.0154 H   0  0  0  0  0  0  0  0  0  0  0  0
   -0.7992   -7.5252   35.4546 H   0  0  0  0  0  0  0  0  0  0  0  0
    0.0581   -6.0932   29.6977 H   0  0  0  0  0  0  0  0  0  0  0  0
    1.9115   -4.2108   29.6418 H   0  0  0  0  0  0  0  0  0  0  0  0
    1.8718   -3.0486   30.9382 H   0  0  0  0  0  0  0  0  0  0  0  0
   -0.4440   -3.8115   29.2121 H   0  0  0  0  0  0  0  0  0  0  0  0
   -2.0426   -1.9457   28.1086 H   0  0  0  0  0  0  0  0  0  0  0  0
   -2.0479   -0.0440   26.5549 H   0  0  0  0  0  0  0  0  0  0  0  0
   -1.8897    2.3510   26.6140 H   0  0  0  0  0  0  0  0  0  0  0  0
    0.0763    2.3558   29.4002 H   0  0  0  0  0  0  0  0  0  0  0  0
    0.0685    0.4702   31.0074 H   0  0  0  0  0  0  0  0  0  0  0  0
    0.0882   -2.6672   34.2277 H   0  0  0  0  0  0  0  0  0  0  0  0
    1.4440   -0.8253   35.1025 H   0  0  0  0  0  0  0  0  0  0  0  0
  1  2  1  0
  2  3  1  0
  3  4  2  0
  3  5  1  0
  5  6  2  0
  6  7  1  0
  7  8  2  0
  8  9  1  0
  9 10  2  0
 10 11  1  0
 11 12  1  0
 12 13  1  0
 12 14  2  0
 14 15  1  0
 15 16  2  0
 16 17  1  0
 17 18  2  0
 18 19  1  0
 19 20  1  0
 20 21  1  0
 21 22  2  0
 21 23  2  0
 21 24  1  0
 24 25  2  0
 25 26  1  0
 26 27  2  0
 27 28  1  0
 27 29  1  0
 29 30  2  0
  8 31  1  0
 31 32  2  0
 32  5  1  0
 18  9  1  0
 30 24  1  0
 16 11  1  0
  1 33  1  0
  1 34  1  0
  1 35  1  0
  2 36  1  0
  6 37  1  0
  7 38  1  0
 10 39  1  0
 13 40  1  0
 13 41  1  0
 17 42  1  0
 19 43  1  0
 19 44  1  0
 20 45  1  0
 25 46  1  0
 26 47  1  0
 28 48  1  0
 29 49  1  0
 30 50  1  0
 31 51  1  0
 32 52  1  0
M  END
>  <Energy>  (140) 
7.65873000312539

>  <compound_id>  (140) 
3950

>  <target_id>  (140) 
1

>  <reference_id>  (140) 
136

>  <inspiration_ids>  (140) 
[136, 186]

>  <energy_score>  (140) 
-25.631976673925493

>  <distance_score>  (140) 
1.3029063185441332

>  <path>  (140) 
/opt/xchem-fragalysis-2/maxwin/BulkDock/SCRATCH/505735/C3950-P136/C3950-P136.minimised.mol

>  <scratch_subdir>  (140) 
/opt/xchem-fragalysis-2/maxwin/BulkDock/SCRATCH/505735/C3950-P136

>  <fragmenstein_runtime>  (140) 
6.352668523788452

>  <fragmenstein_outcome>  (140) 
too moved

>  <fragmenstein_mode>  (140) 
expansion

>  <fragmenstein_error>  (140) 


$$$$
C3950-P186
     RDKit          3D

 52 55  0  0  0  0  0  0  0  0999 V2000
    3.4454    2.1240   35.4440 C   0  0  0  0  0  0  0  0  0  0  0  0
    3.1639    0.7906   34.9986 N   0  0  0  0  0  0  0  0  0  0  0  0
    4.1000   -0.2949   34.4402 C   0  0  0  0  0  0  0  0  0  0  0  0
    5.2585   -0.3062   34.3250 O   0  0  0  0  0  0  0  0  0  0  0  0
    3.3269   -1.4909   33.9995 C   0  0  0  0  0  0  0  0  0  0  0  0
    2.3176   -2.0389   34.7899 C   0  0  0  0  0  0  0  0  0  0  0  0
    1.6026   -3.1545   34.3381 C   0  0  0  0  0  0  0  0  0  0  0  0
    1.8958   -3.7597   33.1065 C   0  0  0  0  0  0  0  0  0  0  0  0
    1.0781   -4.8782   32.5553 C   0  0  0  0  0  0  0  0  0  0  0  0
    0.4607   -5.7608   33.3739 C   0  0  0  0  0  0  0  0  0  0  0  0
   -0.3005   -6.7935   32.8290 N   0  0  0  0  0  0  0  0  0  0  0  0
   -1.1499   -7.7156   33.3986 C   0  0  0  0  0  0  0  0  0  0  0  0
   -1.4091   -7.7991   34.7256 N   0  0  0  0  0  0  0  0  0  0  0  0
   -1.6340   -8.4978   32.4570 N   0  0  0  0  0  0  0  0  0  0  0  0
   -1.1197   -8.1159   31.2488 N   0  0  0  0  0  0  0  0  0  0  0  0
   -0.3396   -7.0868   31.4782 C   0  0  0  0  0  0  0  0  0  0  0  0
    0.2751   -6.1742   30.5999 C   0  0  0  0  0  0  0  0  0  0  0  0
    0.7849   -5.0312   31.1096 C   0  0  0  0  0  0  0  0  0  0  0  0
    0.5562   -3.7906   30.2911 C   0  0  0  0  0  0  0  0  0  0  0  0
   -0.8912   -3.6095   30.3790 N   0  0  0  0  0  0  0  0  0  0  0  0
   -1.5353   -2.4267   31.3622 S   0  0  0  0  0  0  0  0  0  0  0  0
   -2.9597   -2.6437   31.3488 O   0  0  0  0  0  0  0  0  0  0  0  0
   -0.8071   -2.3649   32.6063 O   0  0  0  0  0  0  0  0  0  0  0  0
   -1.1312   -0.9768   30.4351 C   0  0  0  0  0  0  0  0  0  0  0  0
   -1.0784   -1.0580   29.0422 C   0  0  0  0  0  0  0  0  0  0  0  0
   -0.4219   -0.0599   28.3357 C   0  0  0  0  0  0  0  0  0  0  0  0
    0.0926    1.0475   28.9964 C   0  0  0  0  0  0  0  0  0  0  0  0
    0.7493    2.0425   28.3410 O   0  0  0  0  0  0  0  0  0  0  0  0
   -0.0199    1.1558   30.3737 C   0  0  0  0  0  0  0  0  0  0  0  0
   -0.6196    0.1347   31.1063 C   0  0  0  0  0  0  0  0  0  0  0  0
    2.9560   -3.2266   32.3558 C   0  0  0  0  0  0  0  0  0  0  0  0
    3.6505   -2.0910   32.7842 C   0  0  0  0  0  0  0  0  0  0  0  0
    4.5226    2.2447   35.5773 H   0  0  0  0  0  0  0  0  0  0  0  0
    2.9212    2.2962   36.3862 H   0  0  0  0  0  0  0  0  0  0  0  0
    3.0854    2.8243   34.6870 H   0  0  0  0  0  0  0  0  0  0  0  0
    2.2007    0.5028   34.8744 H   0  0  0  0  0  0  0  0  0  0  0  0
    2.0708   -1.6083   35.7569 H   0  0  0  0  0  0  0  0  0  0  0  0
    0.7712   -3.5035   34.9470 H   0  0  0  0  0  0  0  0  0  0  0  0
    0.5017   -5.7153   34.4531 H   0  0  0  0  0  0  0  0  0  0  0  0
   -1.6642   -8.7657   34.9688 H   0  0  0  0  0  0  0  0  0  0  0  0
   -0.7232   -7.4411   35.3808 H   0  0  0  0  0  0  0  0  0  0  0  0
   -0.0234   -6.2369   29.5652 H   0  0  0  0  0  0  0  0  0  0  0  0
    0.8423   -3.9448   29.2443 H   0  0  0  0  0  0  0  0  0  0  0  0
    1.0908   -2.9036   30.6296 H   0  0  0  0  0  0  0  0  0  0  0  0
   -1.4327   -3.8191   29.5395 H   0  0  0  0  0  0  0  0  0  0  0  0
   -1.4708   -1.9120   28.4969 H   0  0  0  0  0  0  0  0  0  0  0  0
   -0.2734   -0.1948   27.2763 H   0  0  0  0  0  0  0  0  0  0  0  0
    0.6114    1.9638   27.3759 H   0  0  0  0  0  0  0  0  0  0  0  0
    0.4084    2.0181   30.8791 H   0  0  0  0  0  0  0  0  0  0  0  0
   -0.6271    0.1845   32.1922 H   0  0  0  0  0  0  0  0  0  0  0  0
    3.2578   -3.6818   31.4146 H   0  0  0  0  0  0  0  0  0  0  0  0
    4.4599   -1.6885   32.1776 H   0  0  0  0  0  0  0  0  0  0  0  0
  1  2  1  0
  2  3  1  0
  3  4  2  0
  3  5  1  0
  5  6  2  0
  6  7  1  0
  7  8  2  0
  8  9  1  0
  9 10  2  0
 10 11  1  0
 11 12  1  0
 12 13  1  0
 12 14  2  0
 14 15  1  0
 15 16  2  0
 16 17  1  0
 17 18  2  0
 18 19  1  0
 19 20  1  0
 20 21  1  0
 21 22  2  0
 21 23  2  0
 21 24  1  0
 24 25  2  0
 25 26  1  0
 26 27  2  0
 27 28  1  0
 27 29  1  0
 29 30  2  0
  8 31  1  0
 31 32  2  0
 32  5  1  0
 18  9  1  0
 30 24  1  0
 16 11  1  0
  1 33  1  0
  1 34  1  0
  1 35  1  0
  2 36  1  0
  6 37  1  0
  7 38  1  0
 10 39  1  0
 13 40  1  0
 13 41  1  0
 17 42  1  0
 19 43  1  0
 19 44  1  0
 20 45  1  0
 25 46  1  0
 26 47  1  0
 28 48  1  0
 29 49  1  0
 30 50  1  0
 31 51  1  0
 32 52  1  0
M  END
>  <Energy>  (141) 
21.479457155862001

>  <compound_id>  (141) 
3950

>  <target_id>  (141) 
1

>  <reference_id>  (141) 
186

>  <inspiration_ids>  (141) 
[136, 186]

>  <energy_score>  (141) 
-11.81124952119086

>  <distance_score>  (141) 
1.0886103358907064

>  <path>  (141) 
/opt/xchem-fragalysis-2/maxwin/BulkDock/SCRATCH/505735/C3950-P186/C3950-P186.minimised.mol

>  <scratch_subdir>  (141) 
/opt/xchem-fragalysis-2/maxwin/BulkDock/SCRATCH/505735/C3950-P186

>  <fragmenstein_runtime>  (141) 
7.323747634887695

>  <fragmenstein_outcome>  (141) 
too moved

>  <fragmenstein_mode>  (141) 
expansion

>  <fragmenstein_error>  (141) 


$$$$
C3951-P136
     RDKit          3D

 53 56  0  0  0  0  0  0  0  0999 V2000
    3.8086    2.4215   33.7471 C   0  0  0  0  0  0  0  0  0  0  0  0
    3.4911    1.0247   33.7511 N   0  0  0  0  0  0  0  0  0  0  0  0
    3.7421   -0.0530   34.8175 C   0  0  0  0  0  0  0  0  0  0  0  0
    4.3144    0.0053   35.8288 O   0  0  0  0  0  0  0  0  0  0  0  0
    3.1158   -1.3230   34.3913 C   0  0  0  0  0  0  0  0  0  0  0  0
    2.0230   -1.8147   35.1002 C   0  0  0  0  0  0  0  0  0  0  0  0
    1.3084   -2.9020   34.5959 C   0  0  0  0  0  0  0  0  0  0  0  0
    1.7029   -3.5123   33.3996 C   0  0  0  0  0  0  0  0  0  0  0  0
    0.8453   -4.5067   32.7269 C   0  0  0  0  0  0  0  0  0  0  0  0
    0.3744   -5.5640   33.4178 C   0  0  0  0  0  0  0  0  0  0  0  0
   -0.3682   -6.5343   32.7545 N   0  0  0  0  0  0  0  0  0  0  0  0
   -1.0843   -7.6156   33.2197 C   0  0  0  0  0  0  0  0  0  0  0  0
   -1.2956   -7.8502   34.5367 N   0  0  0  0  0  0  0  0  0  0  0  0
   -1.5276   -8.3083   32.1908 N   0  0  0  0  0  0  0  0  0  0  0  0
   -1.1825   -7.6493   31.0314 N   0  0  0  0  0  0  0  0  0  0  0  0
   -0.5372   -6.5582   31.3806 C   0  0  0  0  0  0  0  0  0  0  0  0
   -0.1338   -5.4042   30.6561 C   0  0  0  0  0  0  0  0  0  0  0  0
    0.4020   -4.3552   31.3190 C   0  0  0  0  0  0  0  0  0  0  0  0
    0.4317   -2.9634   30.7039 C   0  0  0  0  0  0  0  0  0  0  0  0
   -0.4881   -2.0921   31.4667 N   0  0  0  0  0  0  0  0  0  0  0  0
   -0.1499   -0.4568   31.6458 S   0  0  0  0  0  0  0  0  0  0  0  0
    1.2558   -0.2825   31.9212 O   0  0  0  0  0  0  0  0  0  0  0  0
   -1.1517    0.0408   32.5608 O   0  0  0  0  0  0  0  0  0  0  0  0
   -0.4766    0.1410   30.1453 N   0  0  0  0  0  0  0  0  0  0  0  0
   -1.8192   -0.0820   29.6226 C   0  0  0  0  0  0  0  0  0  0  0  0
   -1.6234   -1.0903   28.5185 C   0  0  0  0  0  0  0  0  0  0  0  0
   -0.2879   -0.6974   27.9396 C   0  0  0  0  0  0  0  0  0  0  0  0
    0.4881   -0.0495   29.0607 C   0  0  0  0  0  0  0  0  0  0  0  0
    2.8704   -3.0713   32.7588 C   0  0  0  0  0  0  0  0  0  0  0  0
    3.5605   -1.9592   33.2341 C   0  0  0  0  0  0  0  0  0  0  0  0
    4.2416    2.6792   32.7784 H   0  0  0  0  0  0  0  0  0  0  0  0
    4.5142    2.6385   34.5519 H   0  0  0  0  0  0  0  0  0  0  0  0
    2.8862    2.9859   33.9014 H   0  0  0  0  0  0  0  0  0  0  0  0
    2.8771    0.6495   33.0246 H   0  0  0  0  0  0  0  0  0  0  0  0
    1.6886   -1.3093   36.0035 H   0  0  0  0  0  0  0  0  0  0  0  0
    0.4067   -3.2167   35.1176 H   0  0  0  0  0  0  0  0  0  0  0  0
    0.5583   -5.7244   34.4724 H   0  0  0  0  0  0  0  0  0  0  0  0
   -0.6099   -7.5481   35.2190 H   0  0  0  0  0  0  0  0  0  0  0  0
   -1.5225   -8.8407   34.7364 H   0  0  0  0  0  0  0  0  0  0  0  0
   -0.4477   -5.3154   29.6225 H   0  0  0  0  0  0  0  0  0  0  0  0
    1.4480   -2.5695   30.6786 H   0  0  0  0  0  0  0  0  0  0  0  0
    0.1065   -3.0158   29.6637 H   0  0  0  0  0  0  0  0  0  0  0  0
   -0.6872   -2.4417   32.4046 H   0  0  0  0  0  0  0  0  0  0  0  0
   -2.1652    0.8758   29.2211 H   0  0  0  0  0  0  0  0  0  0  0  0
   -2.5324   -0.4132   30.3788 H   0  0  0  0  0  0  0  0  0  0  0  0
   -1.6111   -2.1092   28.9099 H   0  0  0  0  0  0  0  0  0  0  0  0
   -2.4034   -1.0563   27.7591 H   0  0  0  0  0  0  0  0  0  0  0  0
    0.2584   -1.5594   27.5611 H   0  0  0  0  0  0  0  0  0  0  0  0
   -0.4268    0.0283   27.1326 H   0  0  0  0  0  0  0  0  0  0  0  0
    1.3410   -0.6685   29.3499 H   0  0  0  0  0  0  0  0  0  0  0  0
    0.8887    0.9222   28.7529 H   0  0  0  0  0  0  0  0  0  0  0  0
    3.2243   -3.5517   31.8491 H   0  0  0  0  0  0  0  0  0  0  0  0
    4.4236   -1.5771   32.6952 H   0  0  0  0  0  0  0  0  0  0  0  0
  1  2  1  0
  2  3  1  0
  3  4  2  0
  3  5  1  0
  5  6  2  0
  6  7  1  0
  7  8  2  0
  8  9  1  0
  9 10  2  0
 10 11  1  0
 11 12  1  0
 12 13  1  0
 12 14  2  0
 14 15  1  0
 15 16  2  0
 16 17  1  0
 17 18  2  0
 18 19  1  0
 19 20  1  0
 20 21  1  0
 21 22  2  0
 21 23  2  0
 21 24  1  0
 24 25  1  0
 25 26  1  0
 26 27  1  0
 27 28  1  0
  8 29  1  0
 29 30  2  0
 30  5  1  0
 18  9  1  0
 28 24  1  0
 16 11  1  0
  1 31  1  0
  1 32  1  0
  1 33  1  0
  2 34  1  0
  6 35  1  0
  7 36  1  0
 10 37  1  0
 13 38  1  0
 13 39  1  0
 17 40  1  0
 19 41  1  0
 19 42  1  0
 20 43  1  0
 25 44  1  0
 25 45  1  0
 26 46  1  0
 26 47  1  0
 27 48  1  0
 27 49  1  0
 28 50  1  0
 28 51  1  0
 29 52  1  0
 30 53  1  0
M  END
>  <Energy>  (142) 
-126.4897259877384

>  <compound_id>  (142) 
3951

>  <target_id>  (142) 
1

>  <reference_id>  (142) 
136

>  <inspiration_ids>  (142) 
[136, 187]

>  <energy_score>  (142) 
-58.35884223750202

>  <distance_score>  (142) 
1.8169927874642848

>  <path>  (142) 
/opt/xchem-fragalysis-2/maxwin/BulkDock/SCRATCH/505735/C3951-P136/C3951-P136.minimised.mol

>  <scratch_subdir>  (142) 
/opt/xchem-fragalysis-2/maxwin/BulkDock/SCRATCH/505735/C3951-P136

>  <fragmenstein_runtime>  (142) 
7.37245512008667

>  <fragmenstein_outcome>  (142) 
too moved

>  <fragmenstein_mode>  (142) 
expansion

>  <fragmenstein_error>  (142) 


$$$$
C3951-P187
     RDKit          3D

 53 56  0  0  0  0  0  0  0  0999 V2000
    4.0792    2.3762   33.3106 C   0  0  0  0  0  0  0  0  0  0  0  0
    3.4361    1.1041   33.4502 N   0  0  0  0  0  0  0  0  0  0  0  0
    3.5506    0.0429   34.5574 C   0  0  0  0  0  0  0  0  0  0  0  0
    4.1261    0.0667   35.5690 O   0  0  0  0  0  0  0  0  0  0  0  0
    2.7639   -1.1603   34.1986 C   0  0  0  0  0  0  0  0  0  0  0  0
    3.4153   -2.3880   34.0711 C   0  0  0  0  0  0  0  0  0  0  0  0
    2.7065   -3.4957   33.6052 C   0  0  0  0  0  0  0  0  0  0  0  0
    1.3443   -3.3751   33.2938 C   0  0  0  0  0  0  0  0  0  0  0  0
    0.6562   -4.4542   32.5744 C   0  0  0  0  0  0  0  0  0  0  0  0
    0.1083   -5.4220   33.3405 C   0  0  0  0  0  0  0  0  0  0  0  0
   -0.4796   -6.5255   32.7365 N   0  0  0  0  0  0  0  0  0  0  0  0
   -1.1491   -7.6156   33.2513 C   0  0  0  0  0  0  0  0  0  0  0  0
   -1.3719   -7.8069   34.5747 N   0  0  0  0  0  0  0  0  0  0  0  0
   -1.5207   -8.3966   32.2583 N   0  0  0  0  0  0  0  0  0  0  0  0
   -1.1027   -7.8432   31.0739 N   0  0  0  0  0  0  0  0  0  0  0  0
   -0.4835   -6.7242   31.3696 C   0  0  0  0  0  0  0  0  0  0  0  0
    0.0560   -5.7001   30.5584 C   0  0  0  0  0  0  0  0  0  0  0  0
    0.5494   -4.5598   31.0943 C   0  0  0  0  0  0  0  0  0  0  0  0
    0.8141   -3.4201   30.1047 C   0  0  0  0  0  0  0  0  0  0  0  0
    1.5115   -2.2949   30.7060 N   0  0  0  0  0  0  0  0  0  0  0  0
    1.7452   -0.8633   29.8907 S   0  0  0  0  0  0  0  0  0  0  0  0
    2.3068    0.0302   30.8805 O   0  0  0  0  0  0  0  0  0  0  0  0
    2.4568   -1.1866   28.6796 O   0  0  0  0  0  0  0  0  0  0  0  0
    0.2299   -0.3604   29.5329 N   0  0  0  0  0  0  0  0  0  0  0  0
   -0.7408   -0.1863   30.6066 C   0  0  0  0  0  0  0  0  0  0  0  0
   -1.9913   -0.8317   30.0693 C   0  0  0  0  0  0  0  0  0  0  0  0
   -1.8834   -0.6061   28.5705 C   0  0  0  0  0  0  0  0  0  0  0  0
   -0.4145   -0.7753   28.2817 C   0  0  0  0  0  0  0  0  0  0  0  0
    0.6773   -2.1704   33.5377 C   0  0  0  0  0  0  0  0  0  0  0  0
    1.3923   -1.0518   33.9620 C   0  0  0  0  0  0  0  0  0  0  0  0
    4.8493    2.2914   32.5406 H   0  0  0  0  0  0  0  0  0  0  0  0
    4.5359    2.6614   34.2608 H   0  0  0  0  0  0  0  0  0  0  0  0
    3.3335    3.1139   33.0075 H   0  0  0  0  0  0  0  0  0  0  0  0
    2.9152    0.7166   32.6577 H   0  0  0  0  0  0  0  0  0  0  0  0
    4.4793   -2.4629   34.2835 H   0  0  0  0  0  0  0  0  0  0  0  0
    3.2340   -4.4313   33.4354 H   0  0  0  0  0  0  0  0  0  0  0  0
    0.1045   -5.3973   34.4239 H   0  0  0  0  0  0  0  0  0  0  0  0
   -1.5362   -8.8083   34.7875 H   0  0  0  0  0  0  0  0  0  0  0  0
   -0.6909   -7.4551   35.2388 H   0  0  0  0  0  0  0  0  0  0  0  0
   -0.0641   -5.8024   29.4916 H   0  0  0  0  0  0  0  0  0  0  0  0
    1.4131   -3.7987   29.2680 H   0  0  0  0  0  0  0  0  0  0  0  0
   -0.1602   -3.1052   29.7307 H   0  0  0  0  0  0  0  0  0  0  0  0
    2.4234   -2.5645   31.0747 H   0  0  0  0  0  0  0  0  0  0  0  0
   -0.4464   -0.6319   31.5534 H   0  0  0  0  0  0  0  0  0  0  0  0
   -0.8803    0.8841   30.7723 H   0  0  0  0  0  0  0  0  0  0  0  0
   -2.8754   -0.3763   30.5167 H   0  0  0  0  0  0  0  0  0  0  0  0
   -2.0047   -1.9034   30.2952 H   0  0  0  0  0  0  0  0  0  0  0  0
   -2.4948   -1.2925   27.9817 H   0  0  0  0  0  0  0  0  0  0  0  0
   -2.1681    0.4226   28.3219 H   0  0  0  0  0  0  0  0  0  0  0  0
   -0.0958   -0.1293   27.4603 H   0  0  0  0  0  0  0  0  0  0  0  0
   -0.1863   -1.8125   28.0335 H   0  0  0  0  0  0  0  0  0  0  0  0
   -0.3858   -2.0811   33.3299 H   0  0  0  0  0  0  0  0  0  0  0  0
    0.8879   -0.0981   34.0929 H   0  0  0  0  0  0  0  0  0  0  0  0
  1  2  1  0
  2  3  1  0
  3  4  2  0
  3  5  1  0
  5  6  2  0
  6  7  1  0
  7  8  2  0
  8  9  1  0
  9 10  2  0
 10 11  1  0
 11 12  1  0
 12 13  1  0
 12 14  2  0
 14 15  1  0
 15 16  2  0
 16 17  1  0
 17 18  2  0
 18 19  1  0
 19 20  1  0
 20 21  1  0
 21 22  2  0
 21 23  2  0
 21 24  1  0
 24 25  1  0
 25 26  1  0
 26 27  1  0
 27 28  1  0
  8 29  1  0
 29 30  2  0
 30  5  1  0
 18  9  1  0
 28 24  1  0
 16 11  1  0
  1 31  1  0
  1 32  1  0
  1 33  1  0
  2 34  1  0
  6 35  1  0
  7 36  1  0
 10 37  1  0
 13 38  1  0
 13 39  1  0
 17 40  1  0
 19 41  1  0
 19 42  1  0
 20 43  1  0
 25 44  1  0
 25 45  1  0
 26 46  1  0
 26 47  1  0
 27 48  1  0
 27 49  1  0
 28 50  1  0
 28 51  1  0
 29 52  1  0
 30 53  1  0
M  END
>  <Energy>  (143) 
-128.99603745452967

>  <compound_id>  (143) 
3951

>  <target_id>  (143) 
1

>  <reference_id>  (143) 
187

>  <inspiration_ids>  (143) 
[136, 187]

>  <energy_score>  (143) 
-60.8651537042945

>  <distance_score>  (143) 
1.671292432493056

>  <path>  (143) 
/opt/xchem-fragalysis-2/maxwin/BulkDock/SCRATCH/505735/C3951-P187/C3951-P187.minimised.mol

>  <scratch_subdir>  (143) 
/opt/xchem-fragalysis-2/maxwin/BulkDock/SCRATCH/505735/C3951-P187

>  <fragmenstein_runtime>  (143) 
8.072332382202148

>  <fragmenstein_outcome>  (143) 
too moved

>  <fragmenstein_mode>  (143) 
expansion

>  <fragmenstein_error>  (143) 


$$$$
C3952-P136
     RDKit          3D

 51 54  0  0  0  0  0  0  0  0999 V2000
    4.1093    1.2412   36.8985 C   0  0  0  0  0  0  0  0  0  0  0  0
    3.5889    0.2022   36.0590 N   0  0  0  0  0  0  0  0  0  0  0  0
    4.1940   -0.4773   34.8173 C   0  0  0  0  0  0  0  0  0  0  0  0
    5.1763   -0.2481   34.2346 O   0  0  0  0  0  0  0  0  0  0  0  0
    3.3351   -1.6041   34.3364 C   0  0  0  0  0  0  0  0  0  0  0  0
    3.9602   -2.7437   33.8206 C   0  0  0  0  0  0  0  0  0  0  0  0
    3.2022   -3.8074   33.3222 C   0  0  0  0  0  0  0  0  0  0  0  0
    1.8087   -3.7491   33.3508 C   0  0  0  0  0  0  0  0  0  0  0  0
    1.0136   -4.7997   32.7012 C   0  0  0  0  0  0  0  0  0  0  0  0
    0.4368   -5.7553   33.4539 C   0  0  0  0  0  0  0  0  0  0  0  0
   -0.3081   -6.7491   32.8251 N   0  0  0  0  0  0  0  0  0  0  0  0
   -1.1342   -7.7262   33.3302 C   0  0  0  0  0  0  0  0  0  0  0  0
   -1.4032   -7.8636   34.6512 N   0  0  0  0  0  0  0  0  0  0  0  0
   -1.5974   -8.4517   32.3336 N   0  0  0  0  0  0  0  0  0  0  0  0
   -1.1239   -7.9428   31.1498 N   0  0  0  0  0  0  0  0  0  0  0  0
   -0.3791   -6.9039   31.4487 C   0  0  0  0  0  0  0  0  0  0  0  0
    0.1636   -5.8699   30.6460 C   0  0  0  0  0  0  0  0  0  0  0  0
    0.6916   -4.7866   31.2596 C   0  0  0  0  0  0  0  0  0  0  0  0
    0.4609   -3.4286   30.6330 C   0  0  0  0  0  0  0  0  0  0  0  0
   -0.9307   -3.1488   31.0298 N   0  0  0  0  0  0  0  0  0  0  0  0
   -1.4230   -1.5757   31.2759 S   0  0  0  0  0  0  0  0  0  0  0  0
   -2.8114   -1.7122   31.6598 O   0  0  0  0  0  0  0  0  0  0  0  0
   -0.4776   -0.9185   32.1460 O   0  0  0  0  0  0  0  0  0  0  0  0
   -1.4029   -0.7135   29.7775 C   0  0  0  0  0  0  0  0  0  0  0  0
   -1.5513   -1.3417   28.5269 C   0  0  0  0  0  0  0  0  0  0  0  0
   -1.6138   -0.3067   27.6331 C   0  0  0  0  0  0  0  0  0  0  0  0
   -1.4528    0.8356   28.3486 N   0  0  0  0  0  0  0  0  0  0  0  0
   -1.5519    2.1620   27.8055 C   0  0  0  0  0  0  0  0  0  0  0  0
   -1.2850    0.6214   29.6648 N   0  0  0  0  0  0  0  0  0  0  0  0
    1.1860   -2.6233   33.8942 C   0  0  0  0  0  0  0  0  0  0  0  0
    1.9408   -1.5367   34.3459 C   0  0  0  0  0  0  0  0  0  0  0  0
    4.9603    1.7167   36.4061 H   0  0  0  0  0  0  0  0  0  0  0  0
    4.4301    0.7948   37.8424 H   0  0  0  0  0  0  0  0  0  0  0  0
    3.3181    1.9703   37.0843 H   0  0  0  0  0  0  0  0  0  0  0  0
    2.7636   -0.3043   36.3526 H   0  0  0  0  0  0  0  0  0  0  0  0
    5.0473   -2.7924   33.7808 H   0  0  0  0  0  0  0  0  0  0  0  0
    3.7139   -4.6629   32.8873 H   0  0  0  0  0  0  0  0  0  0  0  0
    0.5080   -5.7930   34.5337 H   0  0  0  0  0  0  0  0  0  0  0  0
   -0.7085   -7.5740   35.3303 H   0  0  0  0  0  0  0  0  0  0  0  0
   -1.6549   -8.8429   34.8795 H   0  0  0  0  0  0  0  0  0  0  0  0
   -0.1795   -5.8155   29.6211 H   0  0  0  0  0  0  0  0  0  0  0  0
    0.5284   -3.4716   29.5408 H   0  0  0  0  0  0  0  0  0  0  0  0
    1.1685   -2.6736   30.9815 H   0  0  0  0  0  0  0  0  0  0  0  0
   -1.2448   -3.6680   31.8495 H   0  0  0  0  0  0  0  0  0  0  0  0
   -1.6797   -2.3912   28.3108 H   0  0  0  0  0  0  0  0  0  0  0  0
   -1.8120   -0.2788   26.5737 H   0  0  0  0  0  0  0  0  0  0  0  0
   -0.8244    2.2586   26.9952 H   0  0  0  0  0  0  0  0  0  0  0  0
   -1.3321    2.8989   28.5808 H   0  0  0  0  0  0  0  0  0  0  0  0
   -2.5641    2.3078   27.4214 H   0  0  0  0  0  0  0  0  0  0  0  0
    0.1011   -2.5555   33.9350 H   0  0  0  0  0  0  0  0  0  0  0  0
    1.4199   -0.6413   34.6760 H   0  0  0  0  0  0  0  0  0  0  0  0
  1  2  1  0
  2  3  1  0
  3  4  2  0
  3  5  1  0
  5  6  2  0
  6  7  1  0
  7  8  2  0
  8  9  1  0
  9 10  2  0
 10 11  1  0
 11 12  1  0
 12 13  1  0
 12 14  2  0
 14 15  1  0
 15 16  2  0
 16 17  1  0
 17 18  2  0
 18 19  1  0
 19 20  1  0
 20 21  1  0
 21 22  2  0
 21 23  2  0
 21 24  1  0
 24 25  1  0
 25 26  2  0
 26 27  1  0
 27 28  1  0
 27 29  1  0
  8 30  1  0
 30 31  2  0
 31  5  1  0
 18  9  1  0
 29 24  2  0
 16 11  1  0
  1 32  1  0
  1 33  1  0
  1 34  1  0
  2 35  1  0
  6 36  1  0
  7 37  1  0
 10 38  1  0
 13 39  1  0
 13 40  1  0
 17 41  1  0
 19 42  1  0
 19 43  1  0
 20 44  1  0
 25 45  1  0
 26 46  1  0
 28 47  1  0
 28 48  1  0
 28 49  1  0
 30 50  1  0
 31 51  1  0
M  END
>  <Energy>  (144) 
88.629453370986823

>  <compound_id>  (144) 
3952

>  <target_id>  (144) 
1

>  <reference_id>  (144) 
136

>  <inspiration_ids>  (144) 
[136, 188]

>  <energy_score>  (144) 
-26.70028960485513

>  <distance_score>  (144) 
1.224453238752605

>  <path>  (144) 
/opt/xchem-fragalysis-2/maxwin/BulkDock/SCRATCH/505735/C3952-P136/C3952-P136.minimised.mol

>  <scratch_subdir>  (144) 
/opt/xchem-fragalysis-2/maxwin/BulkDock/SCRATCH/505735/C3952-P136

>  <fragmenstein_runtime>  (144) 
7.075977325439453

>  <fragmenstein_outcome>  (144) 
too moved

>  <fragmenstein_mode>  (144) 
expansion

>  <fragmenstein_error>  (144) 


$$$$
C3952-P188
     RDKit          3D

 51 54  0  0  0  0  0  0  0  0999 V2000
    3.6961    1.4133   37.2332 C   0  0  0  0  0  0  0  0  0  0  0  0
    3.2956    0.2801   36.4519 N   0  0  0  0  0  0  0  0  0  0  0  0
    3.9838   -0.4041   35.2568 C   0  0  0  0  0  0  0  0  0  0  0  0
    5.0215   -0.2035   34.7668 O   0  0  0  0  0  0  0  0  0  0  0  0
    3.1387   -1.5017   34.6959 C   0  0  0  0  0  0  0  0  0  0  0  0
    3.7658   -2.6912   34.3113 C   0  0  0  0  0  0  0  0  0  0  0  0
    3.0232   -3.7318   33.7486 C   0  0  0  0  0  0  0  0  0  0  0  0
    1.6436   -3.5927   33.5733 C   0  0  0  0  0  0  0  0  0  0  0  0
    0.8873   -4.6143   32.8379 C   0  0  0  0  0  0  0  0  0  0  0  0
    0.1763   -5.5130   33.5454 C   0  0  0  0  0  0  0  0  0  0  0  0
   -0.4978   -6.5275   32.8753 N   0  0  0  0  0  0  0  0  0  0  0  0
   -1.2841   -7.5589   33.3348 C   0  0  0  0  0  0  0  0  0  0  0  0
   -1.5633   -7.7545   34.6479 N   0  0  0  0  0  0  0  0  0  0  0  0
   -1.6693   -8.2928   32.3107 N   0  0  0  0  0  0  0  0  0  0  0  0
   -1.1517   -7.7581   31.1562 N   0  0  0  0  0  0  0  0  0  0  0  0
   -0.4537   -6.7016   31.5028 C   0  0  0  0  0  0  0  0  0  0  0  0
    0.2541   -5.7388   30.7472 C   0  0  0  0  0  0  0  0  0  0  0  0
    0.8589   -4.6996   31.3654 C   0  0  0  0  0  0  0  0  0  0  0  0
    1.4377   -3.5572   30.5740 C   0  0  0  0  0  0  0  0  0  0  0  0
    0.3798   -2.8892   29.8275 N   0  0  0  0  0  0  0  0  0  0  0  0
   -0.7744   -1.9608   30.6565 S   0  0  0  0  0  0  0  0  0  0  0  0
   -1.9179   -2.8149   30.9106 O   0  0  0  0  0  0  0  0  0  0  0  0
   -0.1579   -1.1751   31.6982 O   0  0  0  0  0  0  0  0  0  0  0  0
   -1.2798   -0.8053   29.4508 C   0  0  0  0  0  0  0  0  0  0  0  0
   -1.6737   -1.2313   28.1707 C   0  0  0  0  0  0  0  0  0  0  0  0
   -1.7702   -0.0857   27.4311 C   0  0  0  0  0  0  0  0  0  0  0  0
   -1.4628    0.9354   28.2709 N   0  0  0  0  0  0  0  0  0  0  0  0
   -1.4137    2.3131   27.8729 C   0  0  0  0  0  0  0  0  0  0  0  0
   -1.1550    0.5358   29.5232 N   0  0  0  0  0  0  0  0  0  0  0  0
    1.0156   -2.4176   33.9885 C   0  0  0  0  0  0  0  0  0  0  0  0
    1.7624   -1.3573   34.5072 C   0  0  0  0  0  0  0  0  0  0  0  0
    4.7457    1.6409   37.0351 H   0  0  0  0  0  0  0  0  0  0  0  0
    3.5476    1.1803   38.2896 H   0  0  0  0  0  0  0  0  0  0  0  0
    3.0731    2.2650   36.9512 H   0  0  0  0  0  0  0  0  0  0  0  0
    2.3599   -0.0890   36.5592 H   0  0  0  0  0  0  0  0  0  0  0  0
    4.8426   -2.7976   34.4300 H   0  0  0  0  0  0  0  0  0  0  0  0
    3.5368   -4.6324   33.4211 H   0  0  0  0  0  0  0  0  0  0  0  0
    0.1025   -5.5001   34.6258 H   0  0  0  0  0  0  0  0  0  0  0  0
   -0.8918   -7.4377   35.3385 H   0  0  0  0  0  0  0  0  0  0  0  0
   -1.7412   -8.7569   34.8411 H   0  0  0  0  0  0  0  0  0  0  0  0
    0.2166   -5.8140   29.6706 H   0  0  0  0  0  0  0  0  0  0  0  0
    2.1596   -3.9584   29.8513 H   0  0  0  0  0  0  0  0  0  0  0  0
    1.9937   -2.8204   31.1574 H   0  0  0  0  0  0  0  0  0  0  0  0
   -0.0797   -3.4626   29.1201 H   0  0  0  0  0  0  0  0  0  0  0  0
   -1.8381   -2.2353   27.8211 H   0  0  0  0  0  0  0  0  0  0  0  0
   -2.0476    0.0800   26.4007 H   0  0  0  0  0  0  0  0  0  0  0  0
   -0.5995    2.4307   27.1522 H   0  0  0  0  0  0  0  0  0  0  0  0
   -1.2220    2.9499   28.7362 H   0  0  0  0  0  0  0  0  0  0  0  0
   -2.3631    2.5827   27.4050 H   0  0  0  0  0  0  0  0  0  0  0  0
   -0.0589   -2.2934   33.8639 H   0  0  0  0  0  0  0  0  0  0  0  0
    1.2550   -0.4234   34.7326 H   0  0  0  0  0  0  0  0  0  0  0  0
  1  2  1  0
  2  3  1  0
  3  4  2  0
  3  5  1  0
  5  6  2  0
  6  7  1  0
  7  8  2  0
  8  9  1  0
  9 10  2  0
 10 11  1  0
 11 12  1  0
 12 13  1  0
 12 14  2  0
 14 15  1  0
 15 16  2  0
 16 17  1  0
 17 18  2  0
 18 19  1  0
 19 20  1  0
 20 21  1  0
 21 22  2  0
 21 23  2  0
 21 24  1  0
 24 25  1  0
 25 26  2  0
 26 27  1  0
 27 28  1  0
 27 29  1  0
  8 30  1  0
 30 31  2  0
 31  5  1  0
 18  9  1  0
 29 24  2  0
 16 11  1  0
  1 32  1  0
  1 33  1  0
  1 34  1  0
  2 35  1  0
  6 36  1  0
  7 37  1  0
 10 38  1  0
 13 39  1  0
 13 40  1  0
 17 41  1  0
 19 42  1  0
 19 43  1  0
 20 44  1  0
 25 45  1  0
 26 46  1  0
 28 47  1  0
 28 48  1  0
 28 49  1  0
 30 50  1  0
 31 51  1  0
M  END
>  <Energy>  (145) 
82.600627349926526

>  <compound_id>  (145) 
3952

>  <target_id>  (145) 
1

>  <reference_id>  (145) 
188

>  <inspiration_ids>  (145) 
[136, 188]

>  <energy_score>  (145) 
-32.72911562591776

>  <distance_score>  (145) 
1.3070627352129434

>  <path>  (145) 
/opt/xchem-fragalysis-2/maxwin/BulkDock/SCRATCH/505735/C3952-P188/C3952-P188.minimised.mol

>  <scratch_subdir>  (145) 
/opt/xchem-fragalysis-2/maxwin/BulkDock/SCRATCH/505735/C3952-P188

>  <fragmenstein_runtime>  (145) 
7.043210029602051

>  <fragmenstein_outcome>  (145) 
too moved

>  <fragmenstein_mode>  (145) 
expansion

>  <fragmenstein_error>  (145) 


$$$$
C3953-P136
     RDKit          3D

 54 57  0  0  0  0  0  0  0  0999 V2000
    3.1650    2.3600   34.8684 C   0  0  0  0  0  0  0  0  0  0  0  0
    2.9530    1.0155   34.4182 N   0  0  0  0  0  0  0  0  0  0  0  0
    3.9614   -0.0998   34.0917 C   0  0  0  0  0  0  0  0  0  0  0  0
    5.1252   -0.0803   34.0628 O   0  0  0  0  0  0  0  0  0  0  0  0
    3.2582   -1.3679   33.7569 C   0  0  0  0  0  0  0  0  0  0  0  0
    2.2586   -1.8811   34.5820 C   0  0  0  0  0  0  0  0  0  0  0  0
    1.5814   -3.0465   34.2113 C   0  0  0  0  0  0  0  0  0  0  0  0
    1.9228   -3.7416   33.0425 C   0  0  0  0  0  0  0  0  0  0  0  0
    1.1068   -4.8857   32.5481 C   0  0  0  0  0  0  0  0  0  0  0  0
    0.5750   -4.8614   31.1621 C   0  0  0  0  0  0  0  0  0  0  0  0
    0.1194   -3.5297   30.6246 C   0  0  0  0  0  0  0  0  0  0  0  0
   -1.1684   -3.3296   31.3103 N   0  0  0  0  0  0  0  0  0  0  0  0
   -1.5473   -1.7739   31.7659 S   0  0  0  0  0  0  0  0  0  0  0  0
   -2.9733   -1.7664   31.9940 O   0  0  0  0  0  0  0  0  0  0  0  0
   -0.6302   -1.3821   32.8146 O   0  0  0  0  0  0  0  0  0  0  0  0
   -1.2250   -0.6848   30.4541 C   0  0  0  0  0  0  0  0  0  0  0  0
   -0.3690    0.4341   30.5471 C   0  0  0  0  0  0  0  0  0  0  0  0
   -0.3960    0.9992   29.2964 C   0  0  0  0  0  0  0  0  0  0  0  0
   -1.2352    0.2226   28.5525 N   0  0  0  0  0  0  0  0  0  0  0  0
   -1.6862    0.5215   27.2219 C   0  0  0  0  0  0  0  0  0  0  0  0
   -1.6786   -0.8633   29.2043 N   0  0  0  0  0  0  0  0  0  0  0  0
    0.0765   -5.9605   30.5651 C   0  0  0  0  0  0  0  0  0  0  0  0
   -0.3677   -7.0067   31.3986 C   0  0  0  0  0  0  0  0  0  0  0  0
   -1.1346   -8.0364   31.1345 N   0  0  0  0  0  0  0  0  0  0  0  0
   -1.5803   -8.5123   32.3329 N   0  0  0  0  0  0  0  0  0  0  0  0
   -1.0686   -7.7867   33.3058 C   0  0  0  0  0  0  0  0  0  0  0  0
   -1.3956   -7.8813   34.6176 N   0  0  0  0  0  0  0  0  0  0  0  0
   -0.1794   -6.8685   32.7692 N   0  0  0  0  0  0  0  0  0  0  0  0
    0.6876   -5.9083   33.3443 C   0  0  0  0  0  0  0  0  0  0  0  0
    1.1327   -6.1183   34.7669 C   0  0  0  0  0  0  0  0  0  0  0  0
    2.9661   -3.2380   32.2515 C   0  0  0  0  0  0  0  0  0  0  0  0
    3.6200   -2.0519   32.5972 C   0  0  0  0  0  0  0  0  0  0  0  0
    4.2149    2.6289   34.7343 H   0  0  0  0  0  0  0  0  0  0  0  0
    2.5219    3.0277   34.2914 H   0  0  0  0  0  0  0  0  0  0  0  0
    2.9010    2.4156   35.9269 H   0  0  0  0  0  0  0  0  0  0  0  0
    2.0153    0.6309   34.4298 H   0  0  0  0  0  0  0  0  0  0  0  0
    1.9779   -1.3736   35.5012 H   0  0  0  0  0  0  0  0  0  0  0  0
    0.7439   -3.3673   34.8276 H   0  0  0  0  0  0  0  0  0  0  0  0
    0.8311   -2.7240   30.8074 H   0  0  0  0  0  0  0  0  0  0  0  0
   -0.0561   -3.5624   29.5431 H   0  0  0  0  0  0  0  0  0  0  0  0
   -1.3124   -3.9155   32.1319 H   0  0  0  0  0  0  0  0  0  0  0  0
    0.1745    0.7883   31.4118 H   0  0  0  0  0  0  0  0  0  0  0  0
    0.0684    1.8884   28.8913 H   0  0  0  0  0  0  0  0  0  0  0  0
   -2.0571   -0.3875   26.7547 H   0  0  0  0  0  0  0  0  0  0  0  0
   -2.4771    1.2722   27.2827 H   0  0  0  0  0  0  0  0  0  0  0  0
   -0.8450    0.9292   26.6613 H   0  0  0  0  0  0  0  0  0  0  0  0
   -0.3861   -5.8976   29.5892 H   0  0  0  0  0  0  0  0  0  0  0  0
   -1.7045   -8.8440   34.8429 H   0  0  0  0  0  0  0  0  0  0  0  0
   -0.7262   -7.6303   35.3317 H   0  0  0  0  0  0  0  0  0  0  0  0
    1.3442   -7.1773   34.9540 H   0  0  0  0  0  0  0  0  0  0  0  0
    2.0693   -5.6015   34.9964 H   0  0  0  0  0  0  0  0  0  0  0  0
    0.3697   -5.7722   35.4706 H   0  0  0  0  0  0  0  0  0  0  0  0
    3.2662   -3.7488   31.3381 H   0  0  0  0  0  0  0  0  0  0  0  0
    4.4164   -1.6651   31.9643 H   0  0  0  0  0  0  0  0  0  0  0  0
  1  2  1  0
  2  3  1  0
  3  4  2  0
  3  5  1  0
  5  6  2  0
  6  7  1  0
  7  8  2  0
  8  9  1  0
  9 10  1  0
 10 11  1  0
 11 12  1  0
 12 13  1  0
 13 14  2  0
 13 15  2  0
 13 16  1  0
 16 17  1  0
 17 18  2  0
 18 19  1  0
 19 20  1  0
 19 21  1  0
 10 22  2  0
 22 23  1  0
 23 24  2  0
 24 25  1  0
 25 26  2  0
 26 27  1  0
 26 28  1  0
 28 29  1  0
 29 30  1  0
  8 31  1  0
 31 32  2  0
 32  5  1  0
 29  9  2  0
 21 16  2  0
 28 23  1  0
  1 33  1  0
  1 34  1  0
  1 35  1  0
  2 36  1  0
  6 37  1  0
  7 38  1  0
 11 39  1  0
 11 40  1  0
 12 41  1  0
 17 42  1  0
 18 43  1  0
 20 44  1  0
 20 45  1  0
 20 46  1  0
 22 47  1  0
 27 48  1  0
 27 49  1  0
 30 50  1  0
 30 51  1  0
 30 52  1  0
 31 53  1  0
 32 54  1  0
M  END
>  <Energy>  (146) 
99.899565743556025

>  <compound_id>  (146) 
3953

>  <target_id>  (146) 
1

>  <reference_id>  (146) 
136

>  <inspiration_ids>  (146) 
[136, 189]

>  <energy_score>  (146) 
-35.213170617508695

>  <distance_score>  (146) 
1.128717937372267

>  <path>  (146) 
/opt/xchem-fragalysis-2/maxwin/BulkDock/SCRATCH/505735/C3953-P136/C3953-P136.minimised.mol

>  <scratch_subdir>  (146) 
/opt/xchem-fragalysis-2/maxwin/BulkDock/SCRATCH/505735/C3953-P136

>  <fragmenstein_runtime>  (146) 
6.692391633987427

>  <fragmenstein_outcome>  (146) 
too moved

>  <fragmenstein_mode>  (146) 
expansion

>  <fragmenstein_error>  (146) 


$$$$
C3953-P189
     RDKit          3D

 54 57  0  0  0  0  0  0  0  0999 V2000
    3.0845    2.4151   34.7712 C   0  0  0  0  0  0  0  0  0  0  0  0
    2.8815    1.0310   34.4593 N   0  0  0  0  0  0  0  0  0  0  0  0
    3.8958   -0.0806   34.1396 C   0  0  0  0  0  0  0  0  0  0  0  0
    5.0599   -0.0670   34.1540 O   0  0  0  0  0  0  0  0  0  0  0  0
    3.2009   -1.3494   33.7915 C   0  0  0  0  0  0  0  0  0  0  0  0
    2.1874   -1.8653   34.5985 C   0  0  0  0  0  0  0  0  0  0  0  0
    1.5232   -3.0352   34.2189 C   0  0  0  0  0  0  0  0  0  0  0  0
    1.8931   -3.7306   33.0593 C   0  0  0  0  0  0  0  0  0  0  0  0
    1.0916   -4.8770   32.5504 C   0  0  0  0  0  0  0  0  0  0  0  0
    0.5520   -4.8293   31.1690 C   0  0  0  0  0  0  0  0  0  0  0  0
    0.0682   -3.4894   30.6757 C   0  0  0  0  0  0  0  0  0  0  0  0
   -1.1944   -3.3234   31.4144 N   0  0  0  0  0  0  0  0  0  0  0  0
   -1.6518   -1.7659   31.7808 S   0  0  0  0  0  0  0  0  0  0  0  0
   -3.0514   -1.8436   32.1309 O   0  0  0  0  0  0  0  0  0  0  0  0
   -0.6776   -1.2211   32.7021 O   0  0  0  0  0  0  0  0  0  0  0  0
   -1.5542   -0.7769   30.3636 C   0  0  0  0  0  0  0  0  0  0  0  0
   -0.9330    0.4878   30.3022 C   0  0  0  0  0  0  0  0  0  0  0  0
   -1.1421    0.9128   29.0124 C   0  0  0  0  0  0  0  0  0  0  0  0
   -1.8479   -0.0825   28.3995 N   0  0  0  0  0  0  0  0  0  0  0  0
   -2.4375   -0.0202   27.0933 C   0  0  0  0  0  0  0  0  0  0  0  0
   -2.0321   -1.1615   29.1717 N   0  0  0  0  0  0  0  0  0  0  0  0
    0.0643   -5.9211   30.5509 C   0  0  0  0  0  0  0  0  0  0  0  0
   -0.3575   -6.9935   31.3629 C   0  0  0  0  0  0  0  0  0  0  0  0
   -1.0955   -8.0404   31.0808 N   0  0  0  0  0  0  0  0  0  0  0  0
   -1.5334   -8.5471   32.2700 N   0  0  0  0  0  0  0  0  0  0  0  0
   -1.0526   -7.8147   33.2529 C   0  0  0  0  0  0  0  0  0  0  0  0
   -1.3976   -7.9308   34.5567 N   0  0  0  0  0  0  0  0  0  0  0  0
   -0.1761   -6.8737   32.7365 N   0  0  0  0  0  0  0  0  0  0  0  0
    0.6780   -5.9135   33.3306 C   0  0  0  0  0  0  0  0  0  0  0  0
    1.1194   -6.1339   34.7523 C   0  0  0  0  0  0  0  0  0  0  0  0
    2.9457   -3.2224   32.2839 C   0  0  0  0  0  0  0  0  0  0  0  0
    3.5877   -2.0331   32.6397 C   0  0  0  0  0  0  0  0  0  0  0  0
    4.1527    2.6416   34.7567 H   0  0  0  0  0  0  0  0  0  0  0  0
    2.5608    3.0192   34.0271 H   0  0  0  0  0  0  0  0  0  0  0  0
    2.6708    2.6120   35.7626 H   0  0  0  0  0  0  0  0  0  0  0  0
    1.9419    0.6515   34.4258 H   0  0  0  0  0  0  0  0  0  0  0  0
    1.8896   -1.3567   35.5119 H   0  0  0  0  0  0  0  0  0  0  0  0
    0.6799   -3.3628   34.8233 H   0  0  0  0  0  0  0  0  0  0  0  0
    0.7777   -2.6810   30.8576 H   0  0  0  0  0  0  0  0  0  0  0  0
   -0.1425   -3.5013   29.6004 H   0  0  0  0  0  0  0  0  0  0  0  0
   -1.2594   -3.8508   32.2843 H   0  0  0  0  0  0  0  0  0  0  0  0
   -0.4316    1.0235   31.0956 H   0  0  0  0  0  0  0  0  0  0  0  0
   -0.8924    1.8327   28.5005 H   0  0  0  0  0  0  0  0  0  0  0  0
   -2.7526   -1.0171   26.7802 H   0  0  0  0  0  0  0  0  0  0  0  0
   -3.3010    0.6444   27.1294 H   0  0  0  0  0  0  0  0  0  0  0  0
   -1.7019    0.3945   26.4107 H   0  0  0  0  0  0  0  0  0  0  0  0
   -0.4074   -5.8379   29.5817 H   0  0  0  0  0  0  0  0  0  0  0  0
   -1.7055   -8.8910   34.7638 H   0  0  0  0  0  0  0  0  0  0  0  0
   -0.7872   -7.6010   35.2909 H   0  0  0  0  0  0  0  0  0  0  0  0
    1.3283   -7.1944   34.9339 H   0  0  0  0  0  0  0  0  0  0  0  0
    2.0551   -5.6175   34.9871 H   0  0  0  0  0  0  0  0  0  0  0  0
    0.3547   -5.7915   35.4560 H   0  0  0  0  0  0  0  0  0  0  0  0
    3.2633   -3.7326   31.3761 H   0  0  0  0  0  0  0  0  0  0  0  0
    4.3945   -1.6436   32.0218 H   0  0  0  0  0  0  0  0  0  0  0  0
  1  2  1  0
  2  3  1  0
  3  4  2  0
  3  5  1  0
  5  6  2  0
  6  7  1  0
  7  8  2  0
  8  9  1  0
  9 10  1  0
 10 11  1  0
 11 12  1  0
 12 13  1  0
 13 14  2  0
 13 15  2  0
 13 16  1  0
 16 17  1  0
 17 18  2  0
 18 19  1  0
 19 20  1  0
 19 21  1  0
 10 22  2  0
 22 23  1  0
 23 24  2  0
 24 25  1  0
 25 26  2  0
 26 27  1  0
 26 28  1  0
 28 29  1  0
 29 30  1  0
  8 31  1  0
 31 32  2  0
 32  5  1  0
 29  9  2  0
 21 16  2  0
 28 23  1  0
  1 33  1  0
  1 34  1  0
  1 35  1  0
  2 36  1  0
  6 37  1  0
  7 38  1  0
 11 39  1  0
 11 40  1  0
 12 41  1  0
 17 42  1  0
 18 43  1  0
 20 44  1  0
 20 45  1  0
 20 46  1  0
 22 47  1  0
 27 48  1  0
 27 49  1  0
 30 50  1  0
 30 51  1  0
 30 52  1  0
 31 53  1  0
 32 54  1  0
M  END
>  <Energy>  (147) 
98.838070590020081

>  <compound_id>  (147) 
3953

>  <target_id>  (147) 
1

>  <reference_id>  (147) 
189

>  <inspiration_ids>  (147) 
[136, 189]

>  <energy_score>  (147) 
-36.274665771047154

>  <distance_score>  (147) 
1.1333085116098343

>  <path>  (147) 
/opt/xchem-fragalysis-2/maxwin/BulkDock/SCRATCH/505735/C3953-P189/C3953-P189.minimised.mol

>  <scratch_subdir>  (147) 
/opt/xchem-fragalysis-2/maxwin/BulkDock/SCRATCH/505735/C3953-P189

>  <fragmenstein_runtime>  (147) 
6.219545125961304

>  <fragmenstein_outcome>  (147) 
too moved

>  <fragmenstein_mode>  (147) 
expansion

>  <fragmenstein_error>  (147) 


$$$$
C3954-P136
     RDKit          3D

 47 50  0  0  0  0  0  0  0  0999 V2000
    2.5760    2.1982   36.2364 C   0  0  0  0  0  0  0  0  0  0  0  0
    2.3832    0.9592   35.5415 N   0  0  0  0  0  0  0  0  0  0  0  0
    3.4049   -0.0002   34.9067 C   0  0  0  0  0  0  0  0  0  0  0  0
    4.5580    0.1012   34.7799 O   0  0  0  0  0  0  0  0  0  0  0  0
    2.7388   -1.2172   34.3602 C   0  0  0  0  0  0  0  0  0  0  0  0
    3.3306   -2.4632   34.5996 C   0  0  0  0  0  0  0  0  0  0  0  0
    2.7620   -3.6259   34.0745 C   0  0  0  0  0  0  0  0  0  0  0  0
    1.5999   -3.5460   33.3037 C   0  0  0  0  0  0  0  0  0  0  0  0
    1.0506   -4.7362   32.6362 C   0  0  0  0  0  0  0  0  0  0  0  0
    0.1783   -5.5043   33.3219 C   0  0  0  0  0  0  0  0  0  0  0  0
   -0.4292   -6.5827   32.6850 N   0  0  0  0  0  0  0  0  0  0  0  0
   -1.2589   -7.5800   33.1550 C   0  0  0  0  0  0  0  0  0  0  0  0
   -1.5593   -7.7495   34.4675 N   0  0  0  0  0  0  0  0  0  0  0  0
   -1.6338   -8.3364   32.1444 N   0  0  0  0  0  0  0  0  0  0  0  0
   -1.0045   -7.8979   31.0042 N   0  0  0  0  0  0  0  0  0  0  0  0
   -0.2505   -6.8769   31.3440 C   0  0  0  0  0  0  0  0  0  0  0  0
    0.7016   -6.1095   30.6301 C   0  0  0  0  0  0  0  0  0  0  0  0
    1.3752   -5.1095   31.2408 C   0  0  0  0  0  0  0  0  0  0  0  0
    2.5256   -4.4203   30.5420 C   0  0  0  0  0  0  0  0  0  0  0  0
    2.2065   -3.0159   30.3111 N   0  0  0  0  0  0  0  0  0  0  0  0
    1.5482   -2.6241   28.8187 S   0  0  0  0  0  0  0  0  0  0  0  0
    0.9691   -3.8085   28.2347 O   0  0  0  0  0  0  0  0  0  0  0  0
    2.5663   -1.8443   28.1454 O   0  0  0  0  0  0  0  0  0  0  0  0
    0.2254   -1.5153   29.0842 C   0  0  0  0  0  0  0  0  0  0  0  0
   -0.0131   -0.4491   28.2435 C   0  0  0  0  0  0  0  0  0  0  0  0
   -1.2128    0.5570   28.9042 S   0  0  0  0  0  0  0  0  0  0  0  0
   -1.3918   -0.5339   30.2112 C   0  0  0  0  0  0  0  0  0  0  0  0
   -0.5766   -1.5637   30.2294 N   0  0  0  0  0  0  0  0  0  0  0  0
    1.0054   -2.2974   33.0772 C   0  0  0  0  0  0  0  0  0  0  0  0
    1.5824   -1.1309   33.5802 C   0  0  0  0  0  0  0  0  0  0  0  0
    2.0436    2.9849   35.6976 H   0  0  0  0  0  0  0  0  0  0  0  0
    2.1658    2.0991   37.2437 H   0  0  0  0  0  0  0  0  0  0  0  0
    3.6422    2.4296   36.2846 H   0  0  0  0  0  0  0  0  0  0  0  0
    1.4489    0.5935   35.4090 H   0  0  0  0  0  0  0  0  0  0  0  0
    4.2465   -2.5238   35.1846 H   0  0  0  0  0  0  0  0  0  0  0  0
    3.2474   -4.5826   34.2493 H   0  0  0  0  0  0  0  0  0  0  0  0
   -0.1158   -5.3139   34.3472 H   0  0  0  0  0  0  0  0  0  0  0  0
   -1.7953   -8.7367   34.6745 H   0  0  0  0  0  0  0  0  0  0  0  0
   -0.8833   -7.4468   35.1595 H   0  0  0  0  0  0  0  0  0  0  0  0
    0.9275   -6.3955   29.6120 H   0  0  0  0  0  0  0  0  0  0  0  0
    3.4220   -4.4749   31.1722 H   0  0  0  0  0  0  0  0  0  0  0  0
    2.8113   -4.9233   29.6107 H   0  0  0  0  0  0  0  0  0  0  0  0
    2.9623   -2.3708   30.5377 H   0  0  0  0  0  0  0  0  0  0  0  0
    0.4942   -0.1967   27.3263 H   0  0  0  0  0  0  0  0  0  0  0  0
   -2.1328   -0.3689   30.9810 H   0  0  0  0  0  0  0  0  0  0  0  0
    0.1069   -2.2315   32.4692 H   0  0  0  0  0  0  0  0  0  0  0  0
    1.1382   -0.1707   33.3344 H   0  0  0  0  0  0  0  0  0  0  0  0
  1  2  1  0
  2  3  1  0
  3  4  2  0
  3  5  1  0
  5  6  2  0
  6  7  1  0
  7  8  2  0
  8  9  1  0
  9 10  2  0
 10 11  1  0
 11 12  1  0
 12 13  1  0
 12 14  2  0
 14 15  1  0
 15 16  2  0
 16 17  1  0
 17 18  2  0
 18 19  1  0
 19 20  1  0
 20 21  1  0
 21 22  2  0
 21 23  2  0
 21 24  1  0
 24 25  2  0
 25 26  1  0
 26 27  1  0
 27 28  2  0
  8 29  1  0
 29 30  2  0
 30  5  1  0
 18  9  1  0
 28 24  1  0
 16 11  1  0
  1 31  1  0
  1 32  1  0
  1 33  1  0
  2 34  1  0
  6 35  1  0
  7 36  1  0
 10 37  1  0
 13 38  1  0
 13 39  1  0
 17 40  1  0
 19 41  1  0
 19 42  1  0
 20 43  1  0
 25 44  1  0
 27 45  1  0
 29 46  1  0
 30 47  1  0
M  END
>  <Energy>  (148) 
44.669182486072941

>  <compound_id>  (148) 
3954

>  <target_id>  (148) 
1

>  <reference_id>  (148) 
136

>  <inspiration_ids>  (148) 
[136, 190]

>  <energy_score>  (148) 
-110.32974894554752

>  <distance_score>  (148) 
1.7099456072641532

>  <path>  (148) 
/opt/xchem-fragalysis-2/maxwin/BulkDock/SCRATCH/505735/C3954-P136/C3954-P136.minimised.mol

>  <scratch_subdir>  (148) 
/opt/xchem-fragalysis-2/maxwin/BulkDock/SCRATCH/505735/C3954-P136

>  <fragmenstein_runtime>  (148) 
3.996457099914551

>  <fragmenstein_outcome>  (148) 
too moved

>  <fragmenstein_mode>  (148) 
expansion

>  <fragmenstein_error>  (148) 


$$$$
C3954-P190
     RDKit          3D

 47 50  0  0  0  0  0  0  0  0999 V2000
    2.4337    2.1452   36.2293 C   0  0  0  0  0  0  0  0  0  0  0  0
    2.2809    0.8449   35.6444 N   0  0  0  0  0  0  0  0  0  0  0  0
    3.3065   -0.0622   34.9428 C   0  0  0  0  0  0  0  0  0  0  0  0
    4.4543    0.0686   34.7964 O   0  0  0  0  0  0  0  0  0  0  0  0
    2.6575   -1.2867   34.3934 C   0  0  0  0  0  0  0  0  0  0  0  0
    3.2831   -2.5219   34.5989 C   0  0  0  0  0  0  0  0  0  0  0  0
    2.7276   -3.6895   34.0703 C   0  0  0  0  0  0  0  0  0  0  0  0
    1.5447   -3.6251   33.3299 C   0  0  0  0  0  0  0  0  0  0  0  0
    1.0095   -4.8171   32.6519 C   0  0  0  0  0  0  0  0  0  0  0  0
    0.1451   -5.6007   33.3290 C   0  0  0  0  0  0  0  0  0  0  0  0
   -0.4525   -6.6767   32.6793 N   0  0  0  0  0  0  0  0  0  0  0  0
   -1.2752   -7.6849   33.1367 C   0  0  0  0  0  0  0  0  0  0  0  0
   -1.5786   -7.8711   34.4467 N   0  0  0  0  0  0  0  0  0  0  0  0
   -1.6454   -8.4323   32.1182 N   0  0  0  0  0  0  0  0  0  0  0  0
   -1.0245   -7.9730   30.9817 N   0  0  0  0  0  0  0  0  0  0  0  0
   -0.2740   -6.9541   31.3346 C   0  0  0  0  0  0  0  0  0  0  0  0
    0.6675   -6.1699   30.6270 C   0  0  0  0  0  0  0  0  0  0  0  0
    1.3318   -5.1711   31.2504 C   0  0  0  0  0  0  0  0  0  0  0  0
    2.4517   -4.4375   30.5500 C   0  0  0  0  0  0  0  0  0  0  0  0
    2.0820   -3.0354   30.3806 N   0  0  0  0  0  0  0  0  0  0  0  0
    1.3649   -2.6384   28.9194 S   0  0  0  0  0  0  0  0  0  0  0  0
    0.6413   -3.7839   28.4254 O   0  0  0  0  0  0  0  0  0  0  0  0
    2.4061   -1.9788   28.1618 O   0  0  0  0  0  0  0  0  0  0  0  0
    0.1539   -1.4186   29.2100 C   0  0  0  0  0  0  0  0  0  0  0  0
    0.0022   -0.3245   28.3853 C   0  0  0  0  0  0  0  0  0  0  0  0
   -1.1465    0.7429   29.0414 S   0  0  0  0  0  0  0  0  0  0  0  0
   -1.4082   -0.3491   30.3338 C   0  0  0  0  0  0  0  0  0  0  0  0
   -0.6647   -1.4315   30.3442 N   0  0  0  0  0  0  0  0  0  0  0  0
    0.9170   -2.3865   33.1364 C   0  0  0  0  0  0  0  0  0  0  0  0
    1.4810   -1.2147   33.6425 C   0  0  0  0  0  0  0  0  0  0  0  0
    1.9714    2.8791   35.5654 H   0  0  0  0  0  0  0  0  0  0  0  0
    1.9307    2.1544   37.1984 H   0  0  0  0  0  0  0  0  0  0  0  0
    3.4960    2.3700   36.3470 H   0  0  0  0  0  0  0  0  0  0  0  0
    1.3512    0.4668   35.5145 H   0  0  0  0  0  0  0  0  0  0  0  0
    4.2146   -2.5701   35.1602 H   0  0  0  0  0  0  0  0  0  0  0  0
    3.2398   -4.6369   34.2171 H   0  0  0  0  0  0  0  0  0  0  0  0
   -0.1516   -5.4220   34.3557 H   0  0  0  0  0  0  0  0  0  0  0  0
   -1.8158   -8.8608   34.6305 H   0  0  0  0  0  0  0  0  0  0  0  0
   -0.9066   -7.5567   35.1368 H   0  0  0  0  0  0  0  0  0  0  0  0
    0.8842   -6.4376   29.6004 H   0  0  0  0  0  0  0  0  0  0  0  0
    3.3642   -4.4904   31.1562 H   0  0  0  0  0  0  0  0  0  0  0  0
    2.7214   -4.8977   29.5920 H   0  0  0  0  0  0  0  0  0  0  0  0
    2.8443   -2.3861   30.5734 H   0  0  0  0  0  0  0  0  0  0  0  0
    0.5401   -0.0926   27.4794 H   0  0  0  0  0  0  0  0  0  0  0  0
   -2.1445   -0.1459   31.0991 H   0  0  0  0  0  0  0  0  0  0  0  0
    0.0045   -2.3311   32.5474 H   0  0  0  0  0  0  0  0  0  0  0  0
    1.0103   -0.2611   33.4222 H   0  0  0  0  0  0  0  0  0  0  0  0
  1  2  1  0
  2  3  1  0
  3  4  2  0
  3  5  1  0
  5  6  2  0
  6  7  1  0
  7  8  2  0
  8  9  1  0
  9 10  2  0
 10 11  1  0
 11 12  1  0
 12 13  1  0
 12 14  2  0
 14 15  1  0
 15 16  2  0
 16 17  1  0
 17 18  2  0
 18 19  1  0
 19 20  1  0
 20 21  1  0
 21 22  2  0
 21 23  2  0
 21 24  1  0
 24 25  2  0
 25 26  1  0
 26 27  1  0
 27 28  2  0
  8 29  1  0
 29 30  2  0
 30  5  1  0
 18  9  1  0
 28 24  1  0
 16 11  1  0
  1 31  1  0
  1 32  1  0
  1 33  1  0
  2 34  1  0
  6 35  1  0
  7 36  1  0
 10 37  1  0
 13 38  1  0
 13 39  1  0
 17 40  1  0
 19 41  1  0
 19 42  1  0
 20 43  1  0
 25 44  1  0
 27 45  1  0
 29 46  1  0
 30 47  1  0
M  END
>  <Energy>  (149) 
44.388927651670159

>  <compound_id>  (149) 
3954

>  <target_id>  (149) 
1

>  <reference_id>  (149) 
190

>  <inspiration_ids>  (149) 
[136, 190]

>  <energy_score>  (149) 
-110.61000377995168

>  <distance_score>  (149) 
1.700324841061779

>  <path>  (149) 
/opt/xchem-fragalysis-2/maxwin/BulkDock/SCRATCH/505735/C3954-P190/C3954-P190.minimised.mol

>  <scratch_subdir>  (149) 
/opt/xchem-fragalysis-2/maxwin/BulkDock/SCRATCH/505735/C3954-P190

>  <fragmenstein_runtime>  (149) 
4.103556156158447

>  <fragmenstein_outcome>  (149) 
too moved

>  <fragmenstein_mode>  (149) 
expansion

>  <fragmenstein_error>  (149) 


$$$$
C3954-P136
     RDKit          3D

 47 50  0  0  0  0  0  0  0  0999 V2000
    4.3066    2.3572   33.3900 C   0  0  0  0  0  0  0  0  0  0  0  0
    3.8364    1.0052   33.3117 N   0  0  0  0  0  0  0  0  0  0  0  0
    3.9526   -0.1534   34.3178 C   0  0  0  0  0  0  0  0  0  0  0  0
    4.5147   -0.2155   35.3357 O   0  0  0  0  0  0  0  0  0  0  0  0
    3.2325   -1.3617   33.8268 C   0  0  0  0  0  0  0  0  0  0  0  0
    2.3920   -2.0449   34.7041 C   0  0  0  0  0  0  0  0  0  0  0  0
    1.6871   -3.1721   34.2676 C   0  0  0  0  0  0  0  0  0  0  0  0
    1.8363   -3.6576   32.9598 C   0  0  0  0  0  0  0  0  0  0  0  0
    1.0312   -4.7961   32.4408 C   0  0  0  0  0  0  0  0  0  0  0  0
    0.5949   -5.7724   33.2644 C   0  0  0  0  0  0  0  0  0  0  0  0
   -0.1857   -6.8021   32.7485 N   0  0  0  0  0  0  0  0  0  0  0  0
   -0.9309   -7.7679   33.3731 C   0  0  0  0  0  0  0  0  0  0  0  0
   -0.9833   -7.8692   34.7216 N   0  0  0  0  0  0  0  0  0  0  0  0
   -1.4895   -8.5371   32.4650 N   0  0  0  0  0  0  0  0  0  0  0  0
   -1.1551   -8.0717   31.2192 N   0  0  0  0  0  0  0  0  0  0  0  0
   -0.3942   -7.0190   31.4007 C   0  0  0  0  0  0  0  0  0  0  0  0
    0.0318   -6.0086   30.5144 C   0  0  0  0  0  0  0  0  0  0  0  0
    0.5175   -4.8678   31.0484 C   0  0  0  0  0  0  0  0  0  0  0  0
    0.0012   -3.5924   30.4444 C   0  0  0  0  0  0  0  0  0  0  0  0
   -1.2723   -3.3587   31.1580 N   0  0  0  0  0  0  0  0  0  0  0  0
   -1.5672   -1.7879   31.6372 S   0  0  0  0  0  0  0  0  0  0  0  0
   -0.5807   -1.4244   32.6283 O   0  0  0  0  0  0  0  0  0  0  0  0
   -2.9785   -1.7162   31.9244 O   0  0  0  0  0  0  0  0  0  0  0  0
   -1.2628   -0.7489   30.2805 C   0  0  0  0  0  0  0  0  0  0  0  0
   -0.5176    0.4091   30.3488 C   0  0  0  0  0  0  0  0  0  0  0  0
   -0.3468    1.0751   28.7771 S   0  0  0  0  0  0  0  0  0  0  0  0
   -1.2586   -0.2273   28.1366 C   0  0  0  0  0  0  0  0  0  0  0  0
   -1.6375   -1.1377   29.0027 N   0  0  0  0  0  0  0  0  0  0  0  0
    2.7375   -2.9917   32.1120 C   0  0  0  0  0  0  0  0  0  0  0  0
    3.4140   -1.8407   32.5294 C   0  0  0  0  0  0  0  0  0  0  0  0
    4.9976    2.5329   32.5627 H   0  0  0  0  0  0  0  0  0  0  0  0
    3.4496    3.0285   33.3030 H   0  0  0  0  0  0  0  0  0  0  0  0
    4.8135    2.5146   34.3444 H   0  0  0  0  0  0  0  0  0  0  0  0
    3.3378    0.6897   32.4894 H   0  0  0  0  0  0  0  0  0  0  0  0
    2.2576   -1.6832   35.7217 H   0  0  0  0  0  0  0  0  0  0  0  0
    0.9899   -3.6301   34.9653 H   0  0  0  0  0  0  0  0  0  0  0  0
    0.7929   -5.8200   34.3282 H   0  0  0  0  0  0  0  0  0  0  0  0
   -1.5894   -7.2012   35.1854 H   0  0  0  0  0  0  0  0  0  0  0  0
   -1.3236   -8.8122   34.9974 H   0  0  0  0  0  0  0  0  0  0  0  0
   -0.4389   -6.0079   29.5422 H   0  0  0  0  0  0  0  0  0  0  0  0
   -0.2151   -3.7004   29.3750 H   0  0  0  0  0  0  0  0  0  0  0  0
    0.7031   -2.7634   30.5351 H   0  0  0  0  0  0  0  0  0  0  0  0
   -1.4084   -3.9441   31.9805 H   0  0  0  0  0  0  0  0  0  0  0  0
   -0.0736    0.8762   31.2166 H   0  0  0  0  0  0  0  0  0  0  0  0
   -1.4989   -0.3001   27.0831 H   0  0  0  0  0  0  0  0  0  0  0  0
    2.9293   -3.3620   31.1064 H   0  0  0  0  0  0  0  0  0  0  0  0
    4.1146   -1.3583   31.8527 H   0  0  0  0  0  0  0  0  0  0  0  0
  1  2  1  0
  2  3  1  0
  3  4  2  0
  3  5  1  0
  5  6  2  0
  6  7  1  0
  7  8  2  0
  8  9  1  0
  9 10  2  0
 10 11  1  0
 11 12  1  0
 12 13  1  0
 12 14  2  0
 14 15  1  0
 15 16  2  0
 16 17  1  0
 17 18  2  0
 18 19  1  0
 19 20  1  0
 20 21  1  0
 21 22  2  0
 21 23  2  0
 21 24  1  0
 24 25  2  0
 25 26  1  0
 26 27  1  0
 27 28  2  0
  8 29  1  0
 29 30  2  0
 30  5  1  0
 18  9  1  0
 28 24  1  0
 16 11  1  0
  1 31  1  0
  1 32  1  0
  1 33  1  0
  2 34  1  0
  6 35  1  0
  7 36  1  0
 10 37  1  0
 13 38  1  0
 13 39  1  0
 17 40  1  0
 19 41  1  0
 19 42  1  0
 20 43  1  0
 25 44  1  0
 27 45  1  0
 29 46  1  0
 30 47  1  0
M  END
>  <Energy>  (150) 
64.737680231927484

>  <compound_id>  (150) 
3954

>  <target_id>  (150) 
1

>  <reference_id>  (150) 
136

>  <inspiration_ids>  (150) 
[136, 194]

>  <energy_score>  (150) 
-90.26125119969208

>  <distance_score>  (150) 
1.247117818644758

>  <path>  (150) 
/opt/xchem-fragalysis-2/maxwin/BulkDock/SCRATCH/505735/C3954-P136/C3954-P136.minimised.mol

>  <scratch_subdir>  (150) 
/opt/xchem-fragalysis-2/maxwin/BulkDock/SCRATCH/505735/C3954-P136

>  <fragmenstein_runtime>  (150) 
4.932775259017944

>  <fragmenstein_outcome>  (150) 
too moved

>  <fragmenstein_mode>  (150) 
expansion

>  <fragmenstein_error>  (150) 


$$$$
C3954-P194
     RDKit          3D

 47 50  0  0  0  0  0  0  0  0999 V2000
    3.1124    2.2232   35.4978 C   0  0  0  0  0  0  0  0  0  0  0  0
    2.8776    0.9522   34.8769 N   0  0  0  0  0  0  0  0  0  0  0  0
    3.8609   -0.0481   34.2450 C   0  0  0  0  0  0  0  0  0  0  0  0
    5.0072    0.0353   34.0595 O   0  0  0  0  0  0  0  0  0  0  0  0
    3.1573   -1.2892   33.8187 C   0  0  0  0  0  0  0  0  0  0  0  0
    2.2977   -1.9707   34.6805 C   0  0  0  0  0  0  0  0  0  0  0  0
    1.6296   -3.1179   34.2382 C   0  0  0  0  0  0  0  0  0  0  0  0
    1.8313   -3.6180   32.9432 C   0  0  0  0  0  0  0  0  0  0  0  0
    1.0493   -4.7621   32.4080 C   0  0  0  0  0  0  0  0  0  0  0  0
    0.6132   -5.7505   33.2158 C   0  0  0  0  0  0  0  0  0  0  0  0
   -0.1668   -6.7693   32.6789 N   0  0  0  0  0  0  0  0  0  0  0  0
   -0.9359   -7.7259   33.2854 C   0  0  0  0  0  0  0  0  0  0  0  0
   -1.0445   -7.8187   34.6308 N   0  0  0  0  0  0  0  0  0  0  0  0
   -1.4870   -8.4880   32.3665 N   0  0  0  0  0  0  0  0  0  0  0  0
   -1.1316   -8.0179   31.1288 N   0  0  0  0  0  0  0  0  0  0  0  0
   -0.3666   -6.9701   31.3266 C   0  0  0  0  0  0  0  0  0  0  0  0
    0.0621   -5.9454   30.4569 C   0  0  0  0  0  0  0  0  0  0  0  0
    0.5360   -4.8112   31.0155 C   0  0  0  0  0  0  0  0  0  0  0  0
   -0.0138   -3.5276   30.4586 C   0  0  0  0  0  0  0  0  0  0  0  0
   -1.2977   -3.3657   31.1806 N   0  0  0  0  0  0  0  0  0  0  0  0
   -1.6993   -1.8043   31.6134 S   0  0  0  0  0  0  0  0  0  0  0  0
   -0.7582   -1.3665   32.6205 O   0  0  0  0  0  0  0  0  0  0  0  0
   -3.1188   -1.8222   31.8700 O   0  0  0  0  0  0  0  0  0  0  0  0
   -1.4399   -0.7774   30.2407 C   0  0  0  0  0  0  0  0  0  0  0  0
   -0.7590    0.4204   30.2905 C   0  0  0  0  0  0  0  0  0  0  0  0
   -0.6113    1.0616   28.7067 S   0  0  0  0  0  0  0  0  0  0  0  0
   -1.4400   -0.3053   28.0855 C   0  0  0  0  0  0  0  0  0  0  0  0
   -1.7933   -1.2094   28.9700 N   0  0  0  0  0  0  0  0  0  0  0  0
    2.7490   -2.9529   32.1141 C   0  0  0  0  0  0  0  0  0  0  0  0
    3.3942   -1.7887   32.5392 C   0  0  0  0  0  0  0  0  0  0  0  0
    2.3738    2.9362   35.1257 H   0  0  0  0  0  0  0  0  0  0  0  0
    3.0017    2.1057   36.5781 H   0  0  0  0  0  0  0  0  0  0  0  0
    4.1239    2.5624   35.2642 H   0  0  0  0  0  0  0  0  0  0  0  0
    1.9637    0.5229   34.9575 H   0  0  0  0  0  0  0  0  0  0  0  0
    2.1329   -1.6178   35.6954 H   0  0  0  0  0  0  0  0  0  0  0  0
    0.9201   -3.5841   34.9180 H   0  0  0  0  0  0  0  0  0  0  0  0
    0.8061   -5.8094   34.2797 H   0  0  0  0  0  0  0  0  0  0  0  0
   -1.5361   -7.0591   35.0902 H   0  0  0  0  0  0  0  0  0  0  0  0
   -1.4807   -8.7214   34.8801 H   0  0  0  0  0  0  0  0  0  0  0  0
   -0.4116   -5.9231   29.4864 H   0  0  0  0  0  0  0  0  0  0  0  0
   -0.2202   -3.5994   29.3844 H   0  0  0  0  0  0  0  0  0  0  0  0
    0.6609   -2.6821   30.5955 H   0  0  0  0  0  0  0  0  0  0  0  0
   -1.3630   -3.9151   32.0365 H   0  0  0  0  0  0  0  0  0  0  0  0
   -0.3416    0.9270   31.1492 H   0  0  0  0  0  0  0  0  0  0  0  0
   -1.6544   -0.4188   27.0294 H   0  0  0  0  0  0  0  0  0  0  0  0
    2.9705   -3.3258   31.1157 H   0  0  0  0  0  0  0  0  0  0  0  0
    4.0930   -1.2802   31.8777 H   0  0  0  0  0  0  0  0  0  0  0  0
  1  2  1  0
  2  3  1  0
  3  4  2  0
  3  5  1  0
  5  6  2  0
  6  7  1  0
  7  8  2  0
  8  9  1  0
  9 10  2  0
 10 11  1  0
 11 12  1  0
 12 13  1  0
 12 14  2  0
 14 15  1  0
 15 16  2  0
 16 17  1  0
 17 18  2  0
 18 19  1  0
 19 20  1  0
 20 21  1  0
 21 22  2  0
 21 23  2  0
 21 24  1  0
 24 25  2  0
 25 26  1  0
 26 27  1  0
 27 28  2  0
  8 29  1  0
 29 30  2  0
 30  5  1  0
 18  9  1  0
 28 24  1  0
 16 11  1  0
  1 31  1  0
  1 32  1  0
  1 33  1  0
  2 34  1  0
  6 35  1  0
  7 36  1  0
 10 37  1  0
 13 38  1  0
 13 39  1  0
 17 40  1  0
 19 41  1  0
 19 42  1  0
 20 43  1  0
 25 44  1  0
 27 45  1  0
 29 46  1  0
 30 47  1  0
M  END
>  <Energy>  (151) 
64.254947036509961

>  <compound_id>  (151) 
3954

>  <target_id>  (151) 
1

>  <reference_id>  (151) 
194

>  <inspiration_ids>  (151) 
[136, 194]

>  <energy_score>  (151) 
-90.74398439511498

>  <distance_score>  (151) 
0.9780656743840859

>  <path>  (151) 
/opt/xchem-fragalysis-2/maxwin/BulkDock/SCRATCH/505735/C3954-P194/C3954-P194.minimised.mol

>  <scratch_subdir>  (151) 
/opt/xchem-fragalysis-2/maxwin/BulkDock/SCRATCH/505735/C3954-P194

>  <fragmenstein_runtime>  (151) 
4.203718185424805

>  <fragmenstein_outcome>  (151) 
acceptable

>  <fragmenstein_mode>  (151) 
expansion

>  <fragmenstein_error>  (151) 


$$$$
C3955-P136
     RDKit          3D

 52 55  0  0  0  0  0  0  0  0999 V2000
    6.1038    1.0244   34.4405 C   0  0  0  0  0  0  0  0  0  0  0  0
    5.0725    0.0495   34.2385 N   0  0  0  0  0  0  0  0  0  0  0  0
    3.9029   -0.3708   35.1454 C   0  0  0  0  0  0  0  0  0  0  0  0
    3.5467    0.0610   36.1663 O   0  0  0  0  0  0  0  0  0  0  0  0
    3.1379   -1.4968   34.5374 C   0  0  0  0  0  0  0  0  0  0  0  0
    3.7878   -2.6209   34.0201 C   0  0  0  0  0  0  0  0  0  0  0  0
    3.0434   -3.6584   33.4504 C   0  0  0  0  0  0  0  0  0  0  0  0
    1.6463   -3.5872   33.4121 C   0  0  0  0  0  0  0  0  0  0  0  0
    0.8710   -4.6202   32.7086 C   0  0  0  0  0  0  0  0  0  0  0  0
    0.2140   -5.5326   33.4545 C   0  0  0  0  0  0  0  0  0  0  0  0
   -0.4670   -6.5704   32.8259 N   0  0  0  0  0  0  0  0  0  0  0  0
   -1.2127   -7.6176   33.3238 C   0  0  0  0  0  0  0  0  0  0  0  0
   -1.4494   -7.8091   34.6444 N   0  0  0  0  0  0  0  0  0  0  0  0
   -1.6160   -8.3712   32.3212 N   0  0  0  0  0  0  0  0  0  0  0  0
   -1.1561   -7.8335   31.1445 N   0  0  0  0  0  0  0  0  0  0  0  0
   -0.4755   -6.7546   31.4547 C   0  0  0  0  0  0  0  0  0  0  0  0
    0.1678   -5.7772   30.6615 C   0  0  0  0  0  0  0  0  0  0  0  0
    0.7712   -4.7134   31.2371 C   0  0  0  0  0  0  0  0  0  0  0  0
    1.2829   -3.5723   30.3914 C   0  0  0  0  0  0  0  0  0  0  0  0
    0.1739   -2.9341   29.6750 N   0  0  0  0  0  0  0  0  0  0  0  0
   -0.8997   -1.9629   30.5402 S   0  0  0  0  0  0  0  0  0  0  0  0
   -2.1392   -2.6957   30.6550 O   0  0  0  0  0  0  0  0  0  0  0  0
   -0.2608   -1.4195   31.7147 O   0  0  0  0  0  0  0  0  0  0  0  0
   -1.0671   -0.6311   29.4171 C   0  0  0  0  0  0  0  0  0  0  0  0
   -0.5251    0.6208   29.6895 C   0  0  0  0  0  0  0  0  0  0  0  0
   -0.6920    1.6426   28.7549 C   0  0  0  0  0  0  0  0  0  0  0  0
   -1.4116    1.3875   27.5994 C   0  0  0  0  0  0  0  0  0  0  0  0
   -1.6588    2.3921   26.6685 N   0  0  0  0  0  0  0  0  0  0  0  0
   -1.8866    0.1724   27.3134 N   0  0  0  0  0  0  0  0  0  0  0  0
   -1.7046   -0.8232   28.2149 C   0  0  0  0  0  0  0  0  0  0  0  0
    1.0043   -2.4896   33.9884 C   0  0  0  0  0  0  0  0  0  0  0  0
    1.7444   -1.4367   34.5280 C   0  0  0  0  0  0  0  0  0  0  0  0
    7.0718    0.5210   34.3924 H   0  0  0  0  0  0  0  0  0  0  0  0
    6.0368    1.7707   33.6460 H   0  0  0  0  0  0  0  0  0  0  0  0
    5.9738    1.4991   35.4154 H   0  0  0  0  0  0  0  0  0  0  0  0
    5.0459   -0.4891   33.3813 H   0  0  0  0  0  0  0  0  0  0  0  0
    4.8708   -2.7032   34.0661 H   0  0  0  0  0  0  0  0  0  0  0  0
    3.5631   -4.5151   33.0273 H   0  0  0  0  0  0  0  0  0  0  0  0
    0.1941   -5.5165   34.5375 H   0  0  0  0  0  0  0  0  0  0  0  0
   -1.6319   -8.8066   34.8586 H   0  0  0  0  0  0  0  0  0  0  0  0
   -0.7764   -7.4674   35.3213 H   0  0  0  0  0  0  0  0  0  0  0  0
    0.0771   -5.8629   29.5896 H   0  0  0  0  0  0  0  0  0  0  0  0
    1.9758   -3.9741   29.6411 H   0  0  0  0  0  0  0  0  0  0  0  0
    1.8544   -2.8169   30.9355 H   0  0  0  0  0  0  0  0  0  0  0  0
   -0.3548   -3.5716   29.0738 H   0  0  0  0  0  0  0  0  0  0  0  0
    0.0219    0.8143   30.6075 H   0  0  0  0  0  0  0  0  0  0  0  0
   -0.2893    2.6338   28.9379 H   0  0  0  0  0  0  0  0  0  0  0  0
   -2.1223    3.1835   27.1112 H   0  0  0  0  0  0  0  0  0  0  0  0
   -2.2798    1.9789   25.9740 H   0  0  0  0  0  0  0  0  0  0  0  0
   -2.1180   -1.7818   27.9152 H   0  0  0  0  0  0  0  0  0  0  0  0
   -0.0829   -2.4236   33.9928 H   0  0  0  0  0  0  0  0  0  0  0  0
    1.2299   -0.5768   34.9515 H   0  0  0  0  0  0  0  0  0  0  0  0
  1  2  1  0
  2  3  1  0
  3  4  2  0
  3  5  1  0
  5  6  2  0
  6  7  1  0
  7  8  2  0
  8  9  1  0
  9 10  2  0
 10 11  1  0
 11 12  1  0
 12 13  1  0
 12 14  2  0
 14 15  1  0
 15 16  2  0
 16 17  1  0
 17 18  2  0
 18 19  1  0
 19 20  1  0
 20 21  1  0
 21 22  2  0
 21 23  2  0
 21 24  1  0
 24 25  2  0
 25 26  1  0
 26 27  2  0
 27 28  1  0
 27 29  1  0
 29 30  2  0
  8 31  1  0
 31 32  2  0
 32  5  1  0
 18  9  1  0
 30 24  1  0
 16 11  1  0
  1 33  1  0
  1 34  1  0
  1 35  1  0
  2 36  1  0
  6 37  1  0
  7 38  1  0
 10 39  1  0
 13 40  1  0
 13 41  1  0
 17 42  1  0
 19 43  1  0
 19 44  1  0
 20 45  1  0
 25 46  1  0
 26 47  1  0
 28 48  1  0
 28 49  1  0
 30 50  1  0
 31 51  1  0
 32 52  1  0
M  END
>  <Energy>  (152) 
-49.662450516161144

>  <compound_id>  (152) 
3955

>  <target_id>  (152) 
1

>  <reference_id>  (152) 
136

>  <inspiration_ids>  (152) 
[136, 195]

>  <energy_score>  (152) 
-42.70384432017529

>  <distance_score>  (152) 
1.5372363629285872

>  <path>  (152) 
/opt/xchem-fragalysis-2/maxwin/BulkDock/SCRATCH/505735/C3955-P136/C3955-P136.minimised.mol

>  <scratch_subdir>  (152) 
/opt/xchem-fragalysis-2/maxwin/BulkDock/SCRATCH/505735/C3955-P136

>  <fragmenstein_runtime>  (152) 
6.217519283294678

>  <fragmenstein_outcome>  (152) 
too moved

>  <fragmenstein_mode>  (152) 
expansion

>  <fragmenstein_error>  (152) 


$$$$
C3955-P195
     RDKit          3D

 52 55  0  0  0  0  0  0  0  0999 V2000
    3.9481    2.3376   34.5948 C   0  0  0  0  0  0  0  0  0  0  0  0
    3.5116    0.9992   34.3232 N   0  0  0  0  0  0  0  0  0  0  0  0
    3.9781   -0.3433   34.9127 C   0  0  0  0  0  0  0  0  0  0  0  0
    4.8428   -0.5819   35.6553 O   0  0  0  0  0  0  0  0  0  0  0  0
    3.1520   -1.4695   34.3948 C   0  0  0  0  0  0  0  0  0  0  0  0
    3.7975   -2.6175   33.9300 C   0  0  0  0  0  0  0  0  0  0  0  0
    3.0530   -3.6771   33.4059 C   0  0  0  0  0  0  0  0  0  0  0  0
    1.6567   -3.6065   33.3712 C   0  0  0  0  0  0  0  0  0  0  0  0
    0.8812   -4.6630   32.7055 C   0  0  0  0  0  0  0  0  0  0  0  0
    0.2157   -5.5456   33.4788 C   0  0  0  0  0  0  0  0  0  0  0  0
   -0.4617   -6.6028   32.8799 N   0  0  0  0  0  0  0  0  0  0  0  0
   -1.2329   -7.6159   33.4016 C   0  0  0  0  0  0  0  0  0  0  0  0
   -1.4803   -7.7690   34.7263 N   0  0  0  0  0  0  0  0  0  0  0  0
   -1.6480   -8.3876   32.4182 N   0  0  0  0  0  0  0  0  0  0  0  0
   -1.1548   -7.9111   31.2322 N   0  0  0  0  0  0  0  0  0  0  0  0
   -0.4475   -6.8449   31.5181 C   0  0  0  0  0  0  0  0  0  0  0  0
    0.2184   -5.9119   30.6988 C   0  0  0  0  0  0  0  0  0  0  0  0
    0.7918   -4.8158   31.2403 C   0  0  0  0  0  0  0  0  0  0  0  0
    1.2217   -3.6869   30.3423 C   0  0  0  0  0  0  0  0  0  0  0  0
    0.0294   -3.1464   29.6838 N   0  0  0  0  0  0  0  0  0  0  0  0
   -0.9021   -1.9955   30.4783 S   0  0  0  0  0  0  0  0  0  0  0  0
   -2.2217   -2.5672   30.6150 O   0  0  0  0  0  0  0  0  0  0  0  0
   -0.2115   -1.4586   31.6247 O   0  0  0  0  0  0  0  0  0  0  0  0
   -0.9257   -0.6959   29.3138 C   0  0  0  0  0  0  0  0  0  0  0  0
   -1.8085    0.3479   29.4567 C   0  0  0  0  0  0  0  0  0  0  0  0
   -1.7385    1.4143   28.5599 C   0  0  0  0  0  0  0  0  0  0  0  0
   -0.7754    1.4267   27.5758 C   0  0  0  0  0  0  0  0  0  0  0  0
   -0.6205    2.5410   26.7626 N   0  0  0  0  0  0  0  0  0  0  0  0
    0.1126    0.4374   27.4553 N   0  0  0  0  0  0  0  0  0  0  0  0
    0.0016   -0.6193   28.3002 C   0  0  0  0  0  0  0  0  0  0  0  0
    1.0169   -2.4893   33.9122 C   0  0  0  0  0  0  0  0  0  0  0  0
    1.7578   -1.4100   34.3975 C   0  0  0  0  0  0  0  0  0  0  0  0
    4.0768    2.8631   33.6463 H   0  0  0  0  0  0  0  0  0  0  0  0
    3.1821    2.8361   35.1930 H   0  0  0  0  0  0  0  0  0  0  0  0
    4.8894    2.3095   35.1479 H   0  0  0  0  0  0  0  0  0  0  0  0
    2.6742    0.8535   33.7713 H   0  0  0  0  0  0  0  0  0  0  0  0
    4.8840   -2.6751   33.9543 H   0  0  0  0  0  0  0  0  0  0  0  0
    3.5746   -4.5450   33.0097 H   0  0  0  0  0  0  0  0  0  0  0  0
    0.1834   -5.4895   34.5600 H   0  0  0  0  0  0  0  0  0  0  0  0
   -1.6527   -8.7690   34.9413 H   0  0  0  0  0  0  0  0  0  0  0  0
   -0.7842   -7.4395   35.3863 H   0  0  0  0  0  0  0  0  0  0  0  0
    0.1374   -6.0381   29.6314 H   0  0  0  0  0  0  0  0  0  0  0  0
    1.8866   -4.0794   29.5625 H   0  0  0  0  0  0  0  0  0  0  0  0
    1.7892   -2.8941   30.8347 H   0  0  0  0  0  0  0  0  0  0  0  0
   -0.5740   -3.8207   29.2053 H   0  0  0  0  0  0  0  0  0  0  0  0
   -2.5452    0.3330   30.2499 H   0  0  0  0  0  0  0  0  0  0  0  0
   -2.4133    2.2568   28.6294 H   0  0  0  0  0  0  0  0  0  0  0  0
   -1.4961    2.8607   26.3622 H   0  0  0  0  0  0  0  0  0  0  0  0
    0.1057    2.3617   26.0828 H   0  0  0  0  0  0  0  0  0  0  0  0
    0.7448   -1.3895   28.1266 H   0  0  0  0  0  0  0  0  0  0  0  0
   -0.0706   -2.4297   33.9248 H   0  0  0  0  0  0  0  0  0  0  0  0
    1.2340   -0.5484   34.8022 H   0  0  0  0  0  0  0  0  0  0  0  0
  1  2  1  0
  2  3  1  0
  3  4  2  0
  3  5  1  0
  5  6  2  0
  6  7  1  0
  7  8  2  0
  8  9  1  0
  9 10  2  0
 10 11  1  0
 11 12  1  0
 12 13  1  0
 12 14  2  0
 14 15  1  0
 15 16  2  0
 16 17  1  0
 17 18  2  0
 18 19  1  0
 19 20  1  0
 20 21  1  0
 21 22  2  0
 21 23  2  0
 21 24  1  0
 24 25  2  0
 25 26  1  0
 26 27  2  0
 27 28  1  0
 27 29  1  0
 29 30  2  0
  8 31  1  0
 31 32  2  0
 32  5  1  0
 18  9  1  0
 30 24  1  0
 16 11  1  0
  1 33  1  0
  1 34  1  0
  1 35  1  0
  2 36  1  0
  6 37  1  0
  7 38  1  0
 10 39  1  0
 13 40  1  0
 13 41  1  0
 17 42  1  0
 19 43  1  0
 19 44  1  0
 20 45  1  0
 25 46  1  0
 26 47  1  0
 28 48  1  0
 28 49  1  0
 30 50  1  0
 31 51  1  0
 32 52  1  0
M  END
>  <Energy>  (153) 
-46.873979848228963

>  <compound_id>  (153) 
3955

>  <target_id>  (153) 
1

>  <reference_id>  (153) 
195

>  <inspiration_ids>  (153) 
[136, 195]

>  <energy_score>  (153) 
-39.915373652241556

>  <distance_score>  (153) 
1.4411474520702787

>  <path>  (153) 
/opt/xchem-fragalysis-2/maxwin/BulkDock/SCRATCH/505735/C3955-P195/C3955-P195.minimised.mol

>  <scratch_subdir>  (153) 
/opt/xchem-fragalysis-2/maxwin/BulkDock/SCRATCH/505735/C3955-P195

>  <fragmenstein_runtime>  (153) 
6.296550273895264

>  <fragmenstein_outcome>  (153) 
too moved

>  <fragmenstein_mode>  (153) 
expansion

>  <fragmenstein_error>  (153) 


$$$$
C3955-P136
     RDKit          3D

 52 55  0  0  0  0  0  0  0  0999 V2000
    5.2207    1.8165   33.8733 C   0  0  0  0  0  0  0  0  0  0  0  0
    4.5502    0.5535   33.7651 N   0  0  0  0  0  0  0  0  0  0  0  0
    4.1744   -0.4745   34.8468 C   0  0  0  0  0  0  0  0  0  0  0  0
    4.4172   -0.4950   35.9853 O   0  0  0  0  0  0  0  0  0  0  0  0
    3.4007   -1.6108   34.2687 C   0  0  0  0  0  0  0  0  0  0  0  0
    2.2709   -2.0660   34.9490 C   0  0  0  0  0  0  0  0  0  0  0  0
    1.5188   -3.1277   34.4364 C   0  0  0  0  0  0  0  0  0  0  0  0
    1.9049   -3.7755   33.2552 C   0  0  0  0  0  0  0  0  0  0  0  0
    1.0298   -4.7838   32.6069 C   0  0  0  0  0  0  0  0  0  0  0  0
    0.4546   -5.7414   33.3653 C   0  0  0  0  0  0  0  0  0  0  0  0
   -0.3608   -6.6968   32.7681 N   0  0  0  0  0  0  0  0  0  0  0  0
   -1.1489   -7.6925   33.3004 C   0  0  0  0  0  0  0  0  0  0  0  0
   -1.3521   -7.8542   34.6299 N   0  0  0  0  0  0  0  0  0  0  0  0
   -1.6439   -8.4157   32.3170 N   0  0  0  0  0  0  0  0  0  0  0  0
   -1.2577   -7.8652   31.1196 N   0  0  0  0  0  0  0  0  0  0  0  0
   -0.5314   -6.8088   31.4013 C   0  0  0  0  0  0  0  0  0  0  0  0
   -0.0246   -5.7627   30.5997 C   0  0  0  0  0  0  0  0  0  0  0  0
    0.6383   -4.7345   31.1701 C   0  0  0  0  0  0  0  0  0  0  0  0
    0.7758   -3.4431   30.3967 C   0  0  0  0  0  0  0  0  0  0  0  0
    0.2885   -2.3639   31.2360 N   0  0  0  0  0  0  0  0  0  0  0  0
   -1.2817   -1.8538   31.2141 S   0  0  0  0  0  0  0  0  0  0  0  0
   -2.1386   -2.9686   30.8890 O   0  0  0  0  0  0  0  0  0  0  0  0
   -1.4727   -1.0848   32.4256 O   0  0  0  0  0  0  0  0  0  0  0  0
   -1.1589   -0.7234   29.8884 C   0  0  0  0  0  0  0  0  0  0  0  0
   -0.5532    0.5116   30.1042 C   0  0  0  0  0  0  0  0  0  0  0  0
   -0.5031    1.4289   29.0614 C   0  0  0  0  0  0  0  0  0  0  0  0
   -1.0821    1.0922   27.8532 C   0  0  0  0  0  0  0  0  0  0  0  0
   -1.2030    2.0304   26.8419 N   0  0  0  0  0  0  0  0  0  0  0  0
   -1.6154   -0.1165   27.6255 N   0  0  0  0  0  0  0  0  0  0  0  0
   -1.6308   -1.0207   28.6339 C   0  0  0  0  0  0  0  0  0  0  0  0
    3.0737   -3.3426   32.6114 C   0  0  0  0  0  0  0  0  0  0  0  0
    3.8044   -2.2538   33.0980 C   0  0  0  0  0  0  0  0  0  0  0  0
    5.4699    2.0110   34.9186 H   0  0  0  0  0  0  0  0  0  0  0  0
    6.1299    1.7797   33.2694 H   0  0  0  0  0  0  0  0  0  0  0  0
    4.5569    2.5957   33.4925 H   0  0  0  0  0  0  0  0  0  0  0  0
    4.2452    0.2187   32.8606 H   0  0  0  0  0  0  0  0  0  0  0  0
    1.9578   -1.5785   35.8713 H   0  0  0  0  0  0  0  0  0  0  0  0
    0.6031   -3.4081   34.9560 H   0  0  0  0  0  0  0  0  0  0  0  0
    0.5897   -5.8247   34.4358 H   0  0  0  0  0  0  0  0  0  0  0  0
   -0.6453   -7.5478   35.2875 H   0  0  0  0  0  0  0  0  0  0  0  0
   -1.5936   -8.8342   34.8643 H   0  0  0  0  0  0  0  0  0  0  0  0
   -0.3558   -5.7170   29.5716 H   0  0  0  0  0  0  0  0  0  0  0  0
    0.2223   -3.4689   29.4510 H   0  0  0  0  0  0  0  0  0  0  0  0
    1.8195   -3.2576   30.1273 H   0  0  0  0  0  0  0  0  0  0  0  0
    0.8233   -2.0443   32.0371 H   0  0  0  0  0  0  0  0  0  0  0  0
   -0.1501    0.7781   31.0770 H   0  0  0  0  0  0  0  0  0  0  0  0
   -0.0880    2.4202   29.2122 H   0  0  0  0  0  0  0  0  0  0  0  0
   -0.3333    2.4753   26.5887 H   0  0  0  0  0  0  0  0  0  0  0  0
   -1.6909    1.5862   26.0708 H   0  0  0  0  0  0  0  0  0  0  0  0
   -2.0668   -1.9810   28.3762 H   0  0  0  0  0  0  0  0  0  0  0  0
    3.4289   -3.8461   31.7139 H   0  0  0  0  0  0  0  0  0  0  0  0
    4.7175   -1.9567   32.5876 H   0  0  0  0  0  0  0  0  0  0  0  0
  1  2  1  0
  2  3  1  0
  3  4  2  0
  3  5  1  0
  5  6  2  0
  6  7  1  0
  7  8  2  0
  8  9  1  0
  9 10  2  0
 10 11  1  0
 11 12  1  0
 12 13  1  0
 12 14  2  0
 14 15  1  0
 15 16  2  0
 16 17  1  0
 17 18  2  0
 18 19  1  0
 19 20  1  0
 20 21  1  0
 21 22  2  0
 21 23  2  0
 21 24  1  0
 24 25  2  0
 25 26  1  0
 26 27  2  0
 27 28  1  0
 27 29  1  0
 29 30  2  0
  8 31  1  0
 31 32  2  0
 32  5  1  0
 18  9  1  0
 30 24  1  0
 16 11  1  0
  1 33  1  0
  1 34  1  0
  1 35  1  0
  2 36  1  0
  6 37  1  0
  7 38  1  0
 10 39  1  0
 13 40  1  0
 13 41  1  0
 17 42  1  0
 19 43  1  0
 19 44  1  0
 20 45  1  0
 25 46  1  0
 26 47  1  0
 28 48  1  0
 28 49  1  0
 30 50  1  0
 31 51  1  0
 32 52  1  0
M  END
>  <Energy>  (154) 
-46.337913503112084

>  <compound_id>  (154) 
3955

>  <target_id>  (154) 
1

>  <reference_id>  (154) 
136

>  <inspiration_ids>  (154) 
[136, 196]

>  <energy_score>  (154) 
-71.5371918277495

>  <distance_score>  (154) 
1.4994443897474456

>  <path>  (154) 
/opt/xchem-fragalysis-2/maxwin/BulkDock/SCRATCH/505735/C3955-P136/C3955-P136.minimised.mol

>  <scratch_subdir>  (154) 
/opt/xchem-fragalysis-2/maxwin/BulkDock/SCRATCH/505735/C3955-P136

>  <fragmenstein_runtime>  (154) 
6.607777833938599

>  <fragmenstein_outcome>  (154) 
too moved

>  <fragmenstein_mode>  (154) 
expansion

>  <fragmenstein_error>  (154) 


$$$$
C3955-P196
     RDKit          3D

 52 55  0  0  0  0  0  0  0  0999 V2000
    5.0069    1.9618   33.6910 C   0  0  0  0  0  0  0  0  0  0  0  0
    4.3260    0.7000   33.6465 N   0  0  0  0  0  0  0  0  0  0  0  0
    4.2389   -0.4265   34.6918 C   0  0  0  0  0  0  0  0  0  0  0  0
    4.6418   -0.4762   35.7832 O   0  0  0  0  0  0  0  0  0  0  0  0
    3.4925   -1.6043   34.1598 C   0  0  0  0  0  0  0  0  0  0  0  0
    2.5553   -2.2300   34.9845 C   0  0  0  0  0  0  0  0  0  0  0  0
    1.8247   -3.3288   34.5197 C   0  0  0  0  0  0  0  0  0  0  0  0
    2.0398   -3.8388   33.2324 C   0  0  0  0  0  0  0  0  0  0  0  0
    1.1426   -4.8652   32.6356 C   0  0  0  0  0  0  0  0  0  0  0  0
    0.6148   -5.8588   33.3802 C   0  0  0  0  0  0  0  0  0  0  0  0
   -0.2414   -6.7781   32.7785 N   0  0  0  0  0  0  0  0  0  0  0  0
   -1.0767   -7.7334   33.3085 C   0  0  0  0  0  0  0  0  0  0  0  0
   -1.3028   -7.8715   34.6369 N   0  0  0  0  0  0  0  0  0  0  0  0
   -1.5978   -8.4367   32.3243 N   0  0  0  0  0  0  0  0  0  0  0  0
   -1.1972   -7.8970   31.1272 N   0  0  0  0  0  0  0  0  0  0  0  0
   -0.4416   -6.8622   31.4114 C   0  0  0  0  0  0  0  0  0  0  0  0
    0.0108   -5.7766   30.6277 C   0  0  0  0  0  0  0  0  0  0  0  0
    0.6034   -4.7391   31.2538 C   0  0  0  0  0  0  0  0  0  0  0  0
    0.3583   -3.3475   30.7241 C   0  0  0  0  0  0  0  0  0  0  0  0
   -0.3303   -2.6541   31.8116 N   0  0  0  0  0  0  0  0  0  0  0  0
   -1.7284   -1.8157   31.5807 S   0  0  0  0  0  0  0  0  0  0  0  0
   -2.6450   -2.6969   30.9102 O   0  0  0  0  0  0  0  0  0  0  0  0
   -2.0510   -1.1875   32.8420 O   0  0  0  0  0  0  0  0  0  0  0  0
   -1.1030   -0.5803   30.5219 C   0  0  0  0  0  0  0  0  0  0  0  0
   -0.3174    0.4086   31.1076 C   0  0  0  0  0  0  0  0  0  0  0  0
    0.4393    1.2216   30.2916 C   0  0  0  0  0  0  0  0  0  0  0  0
    0.3812    1.0317   28.9241 C   0  0  0  0  0  0  0  0  0  0  0  0
    1.2300    1.7942   28.1370 N   0  0  0  0  0  0  0  0  0  0  0  0
   -0.4331    0.1225   28.3418 N   0  0  0  0  0  0  0  0  0  0  0  0
   -1.1708   -0.6796   29.1499 C   0  0  0  0  0  0  0  0  0  0  0  0
    3.0296   -3.2369   32.4382 C   0  0  0  0  0  0  0  0  0  0  0  0
    3.7364   -2.1162   32.8852 C   0  0  0  0  0  0  0  0  0  0  0  0
    4.3348    2.7354   33.3141 H   0  0  0  0  0  0  0  0  0  0  0  0
    5.3043    2.1800   34.7189 H   0  0  0  0  0  0  0  0  0  0  0  0
    5.8925    1.8989   33.0548 H   0  0  0  0  0  0  0  0  0  0  0  0
    3.9398    0.3772   32.7694 H   0  0  0  0  0  0  0  0  0  0  0  0
    2.3742   -1.8469   35.9880 H   0  0  0  0  0  0  0  0  0  0  0  0
    1.0541   -3.7420   35.1684 H   0  0  0  0  0  0  0  0  0  0  0  0
    0.8039   -5.9930   34.4363 H   0  0  0  0  0  0  0  0  0  0  0  0
   -0.5918   -7.5888   35.3000 H   0  0  0  0  0  0  0  0  0  0  0  0
   -1.5797   -8.8418   34.8718 H   0  0  0  0  0  0  0  0  0  0  0  0
   -0.4201   -5.6655   29.6416 H   0  0  0  0  0  0  0  0  0  0  0  0
   -0.2623   -3.3792   29.8222 H   0  0  0  0  0  0  0  0  0  0  0  0
    1.2821   -2.8304   30.4562 H   0  0  0  0  0  0  0  0  0  0  0  0
    0.1847   -2.3814   32.6434 H   0  0  0  0  0  0  0  0  0  0  0  0
   -0.2413    0.5102   32.1871 H   0  0  0  0  0  0  0  0  0  0  0  0
    1.0829    1.9877   30.7114 H   0  0  0  0  0  0  0  0  0  0  0  0
    2.2106    1.6457   28.3233 H   0  0  0  0  0  0  0  0  0  0  0  0
    1.0195    1.6358   27.1458 H   0  0  0  0  0  0  0  0  0  0  0  0
   -1.7599   -1.4393   28.6422 H   0  0  0  0  0  0  0  0  0  0  0  0
    3.2587   -3.6306   31.4486 H   0  0  0  0  0  0  0  0  0  0  0  0
    4.5092   -1.6900   32.2502 H   0  0  0  0  0  0  0  0  0  0  0  0
  1  2  1  0
  2  3  1  0
  3  4  2  0
  3  5  1  0
  5  6  2  0
  6  7  1  0
  7  8  2  0
  8  9  1  0
  9 10  2  0
 10 11  1  0
 11 12  1  0
 12 13  1  0
 12 14  2  0
 14 15  1  0
 15 16  2  0
 16 17  1  0
 17 18  2  0
 18 19  1  0
 19 20  1  0
 20 21  1  0
 21 22  2  0
 21 23  2  0
 21 24  1  0
 24 25  2  0
 25 26  1  0
 26 27  2  0
 27 28  1  0
 27 29  1  0
 29 30  2  0
  8 31  1  0
 31 32  2  0
 32  5  1  0
 18  9  1  0
 30 24  1  0
 16 11  1  0
  1 33  1  0
  1 34  1  0
  1 35  1  0
  2 36  1  0
  6 37  1  0
  7 38  1  0
 10 39  1  0
 13 40  1  0
 13 41  1  0
 17 42  1  0
 19 43  1  0
 19 44  1  0
 20 45  1  0
 25 46  1  0
 26 47  1  0
 28 48  1  0
 28 49  1  0
 30 50  1  0
 31 51  1  0
 32 52  1  0
M  END
>  <Energy>  (155) 
-33.527649300037105

>  <compound_id>  (155) 
3955

>  <target_id>  (155) 
1

>  <reference_id>  (155) 
196

>  <inspiration_ids>  (155) 
[136, 196]

>  <energy_score>  (155) 
-58.72692762467389

>  <distance_score>  (155) 
1.5221893743961217

>  <path>  (155) 
/opt/xchem-fragalysis-2/maxwin/BulkDock/SCRATCH/505735/C3955-P196/C3955-P196.minimised.mol

>  <scratch_subdir>  (155) 
/opt/xchem-fragalysis-2/maxwin/BulkDock/SCRATCH/505735/C3955-P196

>  <fragmenstein_runtime>  (155) 
7.187469005584717

>  <fragmenstein_outcome>  (155) 
too moved

>  <fragmenstein_mode>  (155) 
expansion

>  <fragmenstein_error>  (155) 


$$$$
C3956-P136
     RDKit          3D

 46 48  0  0  0  0  0  0  0  0999 V2000
    0.2219    0.1832   28.9438 C   0  0  0  0  0  0  0  0  0  0  0  0
   -0.5527   -1.0808   28.6090 C   0  0  0  0  0  0  0  0  0  0  0  0
   -0.7146   -1.9362   29.7513 O   0  0  0  0  0  0  0  0  0  0  0  0
   -1.5926   -1.4912   30.6665 C   0  0  0  0  0  0  0  0  0  0  0  0
   -2.1375   -0.3959   30.6972 O   0  0  0  0  0  0  0  0  0  0  0  0
   -1.8684   -2.4673   31.7244 C   0  0  0  0  0  0  0  0  0  0  0  0
   -1.4995   -3.7350   31.9380 C   0  0  0  0  0  0  0  0  0  0  0  0
   -0.6100   -4.7016   31.2380 C   0  0  0  0  0  0  0  0  0  0  0  0
    0.7058   -4.3798   31.2902 C   0  0  0  0  0  0  0  0  0  0  0  0
    1.2584   -4.4234   32.6831 C   0  0  0  0  0  0  0  0  0  0  0  0
    2.0943   -3.3114   33.1811 C   0  0  0  0  0  0  0  0  0  0  0  0
    2.9226   -3.4323   34.2993 C   0  0  0  0  0  0  0  0  0  0  0  0
    3.6609   -2.3351   34.7551 C   0  0  0  0  0  0  0  0  0  0  0  0
    3.5809   -1.0992   34.1039 C   0  0  0  0  0  0  0  0  0  0  0  0
    4.4082    0.0342   34.6189 C   0  0  0  0  0  0  0  0  0  0  0  0
    5.4811   -0.1990   35.0076 O   0  0  0  0  0  0  0  0  0  0  0  0
    3.6342    1.3634   34.5637 N   0  0  0  0  0  0  0  0  0  0  0  0
    4.0497    2.6972   34.8862 C   0  0  0  0  0  0  0  0  0  0  0  0
    2.7786   -0.9698   32.9694 C   0  0  0  0  0  0  0  0  0  0  0  0
    2.0407   -2.0665   32.5197 C   0  0  0  0  0  0  0  0  0  0  0  0
    0.8044   -5.4555   33.4522 C   0  0  0  0  0  0  0  0  0  0  0  0
   -0.1555   -6.3324   32.9061 N   0  0  0  0  0  0  0  0  0  0  0  0
   -0.8394   -7.4374   33.3752 C   0  0  0  0  0  0  0  0  0  0  0  0
   -0.8655   -7.8120   34.6697 N   0  0  0  0  0  0  0  0  0  0  0  0
   -1.4743   -7.9989   32.3644 N   0  0  0  0  0  0  0  0  0  0  0  0
   -1.4138   -7.1487   31.2797 N   0  0  0  0  0  0  0  0  0  0  0  0
   -0.7466   -6.0867   31.6691 C   0  0  0  0  0  0  0  0  0  0  0  0
    0.4507    0.7417   28.0311 H   0  0  0  0  0  0  0  0  0  0  0  0
   -0.3337    0.8457   29.6123 H   0  0  0  0  0  0  0  0  0  0  0  0
    1.1610   -0.0662   29.4487 H   0  0  0  0  0  0  0  0  0  0  0  0
   -1.5279   -0.8522   28.1633 H   0  0  0  0  0  0  0  0  0  0  0  0
    0.0174   -1.6581   27.8783 H   0  0  0  0  0  0  0  0  0  0  0  0
   -2.5244   -2.0273   32.4760 H   0  0  0  0  0  0  0  0  0  0  0  0
   -1.8707   -4.1378   32.8829 H   0  0  0  0  0  0  0  0  0  0  0  0
    1.4028   -4.9007   30.6263 H   0  0  0  0  0  0  0  0  0  0  0  0
    3.0210   -4.3727   34.8340 H   0  0  0  0  0  0  0  0  0  0  0  0
    4.3094   -2.4456   35.6231 H   0  0  0  0  0  0  0  0  0  0  0  0
    2.6905    1.1916   34.2403 H   0  0  0  0  0  0  0  0  0  0  0  0
    3.9368    3.3206   33.9966 H   0  0  0  0  0  0  0  0  0  0  0  0
    3.4095    3.0767   35.6855 H   0  0  0  0  0  0  0  0  0  0  0  0
    5.0924    2.6882   35.2105 H   0  0  0  0  0  0  0  0  0  0  0  0
    2.7414   -0.0398   32.4081 H   0  0  0  0  0  0  0  0  0  0  0  0
    1.4230   -1.9250   31.6348 H   0  0  0  0  0  0  0  0  0  0  0  0
    1.0744   -5.6223   34.4854 H   0  0  0  0  0  0  0  0  0  0  0  0
   -1.1877   -8.7822   34.8395 H   0  0  0  0  0  0  0  0  0  0  0  0
   -0.1288   -7.5703   35.3198 H   0  0  0  0  0  0  0  0  0  0  0  0
  1  2  1  0
  2  3  1  0
  3  4  1  0
  4  5  2  0
  4  6  1  0
  6  7  2  3
  7  8  1  0
  8  9  2  0
  9 10  1  0
 10 11  1  0
 11 12  2  0
 12 13  1  0
 13 14  2  0
 14 15  1  0
 15 16  2  0
 15 17  1  0
 17 18  1  0
 14 19  1  0
 19 20  2  0
 10 21  2  0
 21 22  1  0
 22 23  1  0
 23 24  1  0
 23 25  2  0
 25 26  1  0
 26 27  2  0
 27  8  1  0
 20 11  1  0
 27 22  1  0
  1 28  1  0
  1 29  1  0
  1 30  1  0
  2 31  1  0
  2 32  1  0
  6 33  1  0
  7 34  1  0
  9 35  1  0
 12 36  1  0
 13 37  1  0
 17 38  1  0
 18 39  1  0
 18 40  1  0
 18 41  1  0
 19 42  1  0
 20 43  1  0
 21 44  1  0
 24 45  1  0
 24 46  1  0
M  END
>  <Energy>  (156) 
125.91155771074057

>  <compound_id>  (156) 
3956

>  <target_id>  (156) 
1

>  <reference_id>  (156) 
136

>  <inspiration_ids>  (156) 
[136, 197]

>  <energy_score>  (156) 
48.60701848746247

>  <distance_score>  (156) 
1.3028953026172863

>  <path>  (156) 
/opt/xchem-fragalysis-2/maxwin/BulkDock/SCRATCH/505735/C3956-P136/C3956-P136.minimised.mol

>  <scratch_subdir>  (156) 
/opt/xchem-fragalysis-2/maxwin/BulkDock/SCRATCH/505735/C3956-P136

>  <fragmenstein_runtime>  (156) 
5.151845932006836

>  <fragmenstein_outcome>  (156) 
too moved

>  <fragmenstein_mode>  (156) 
expansion

>  <fragmenstein_error>  (156) 


$$$$
C3956-P197
     RDKit          3D

 46 48  0  0  0  0  0  0  0  0999 V2000
    0.0479    0.7253   29.1275 C   0  0  0  0  0  0  0  0  0  0  0  0
   -0.8588   -0.1865   28.3226 C   0  0  0  0  0  0  0  0  0  0  0  0
   -1.5296   -1.0515   29.2411 O   0  0  0  0  0  0  0  0  0  0  0  0
   -0.8478   -2.1676   29.5939 C   0  0  0  0  0  0  0  0  0  0  0  0
    0.1791   -2.5999   29.1057 O   0  0  0  0  0  0  0  0  0  0  0  0
   -1.5551   -2.7044   30.7695 C   0  0  0  0  0  0  0  0  0  0  0  0
   -1.3232   -3.8645   31.3919 C   0  0  0  0  0  0  0  0  0  0  0  0
   -0.3657   -4.9488   31.0626 C   0  0  0  0  0  0  0  0  0  0  0  0
    0.9290   -4.6284   31.3018 C   0  0  0  0  0  0  0  0  0  0  0  0
    1.2441   -4.5172   32.7590 C   0  0  0  0  0  0  0  0  0  0  0  0
    2.0223   -3.3685   33.2645 C   0  0  0  0  0  0  0  0  0  0  0  0
    2.7368   -3.4140   34.4638 C   0  0  0  0  0  0  0  0  0  0  0  0
    3.4353   -2.2889   34.9140 C   0  0  0  0  0  0  0  0  0  0  0  0
    3.4252   -1.0999   34.1765 C   0  0  0  0  0  0  0  0  0  0  0  0
    4.2074    0.0633   34.6930 C   0  0  0  0  0  0  0  0  0  0  0  0
    5.2618   -0.1395   35.1440 O   0  0  0  0  0  0  0  0  0  0  0  0
    3.4270    1.3803   34.5335 N   0  0  0  0  0  0  0  0  0  0  0  0
    3.8165    2.7330   34.8077 C   0  0  0  0  0  0  0  0  0  0  0  0
    2.7382   -1.0469   32.9628 C   0  0  0  0  0  0  0  0  0  0  0  0
    2.0413   -2.1723   32.5174 C   0  0  0  0  0  0  0  0  0  0  0  0
    0.6585   -5.4614   33.5482 C   0  0  0  0  0  0  0  0  0  0  0  0
   -0.2230   -6.3846   32.9517 N   0  0  0  0  0  0  0  0  0  0  0  0
   -0.9341   -7.4743   33.4146 C   0  0  0  0  0  0  0  0  0  0  0  0
   -1.0274   -7.8234   34.7153 N   0  0  0  0  0  0  0  0  0  0  0  0
   -1.4869   -8.0921   32.3901 N   0  0  0  0  0  0  0  0  0  0  0  0
   -1.3052   -7.3245   31.2607 N   0  0  0  0  0  0  0  0  0  0  0  0
   -0.6392   -6.2541   31.6293 C   0  0  0  0  0  0  0  0  0  0  0  0
    0.5542    1.4525   28.4911 H   0  0  0  0  0  0  0  0  0  0  0  0
   -0.5249    1.2632   29.8890 H   0  0  0  0  0  0  0  0  0  0  0  0
    0.8121    0.1488   29.6594 H   0  0  0  0  0  0  0  0  0  0  0  0
   -1.6283    0.3994   27.8132 H   0  0  0  0  0  0  0  0  0  0  0  0
   -0.3054   -0.7494   27.5633 H   0  0  0  0  0  0  0  0  0  0  0  0
   -2.3070   -2.0399   31.1855 H   0  0  0  0  0  0  0  0  0  0  0  0
   -1.8688   -4.0167   32.3199 H   0  0  0  0  0  0  0  0  0  0  0  0
    1.7122   -5.2313   30.8314 H   0  0  0  0  0  0  0  0  0  0  0  0
    2.7784   -4.3184   35.0644 H   0  0  0  0  0  0  0  0  0  0  0  0
    3.9984   -2.3411   35.8448 H   0  0  0  0  0  0  0  0  0  0  0  0
    2.5710    1.2059   34.0243 H   0  0  0  0  0  0  0  0  0  0  0  0
    4.0000    3.2390   33.8573 H   0  0  0  0  0  0  0  0  0  0  0  0
    3.0034    3.2302   35.3405 H   0  0  0  0  0  0  0  0  0  0  0  0
    4.7273    2.7356   35.4103 H   0  0  0  0  0  0  0  0  0  0  0  0
    2.7689   -0.1608   32.3350 H   0  0  0  0  0  0  0  0  0  0  0  0
    1.5240   -2.0997   31.5622 H   0  0  0  0  0  0  0  0  0  0  0  0
    0.7720   -5.5232   34.6216 H   0  0  0  0  0  0  0  0  0  0  0  0
   -1.3106   -8.8038   34.8525 H   0  0  0  0  0  0  0  0  0  0  0  0
   -0.3129   -7.5478   35.3792 H   0  0  0  0  0  0  0  0  0  0  0  0
  1  2  1  0
  2  3  1  0
  3  4  1  0
  4  5  2  0
  4  6  1  0
  6  7  2  3
  7  8  1  0
  8  9  2  0
  9 10  1  0
 10 11  1  0
 11 12  2  0
 12 13  1  0
 13 14  2  0
 14 15  1  0
 15 16  2  0
 15 17  1  0
 17 18  1  0
 14 19  1  0
 19 20  2  0
 10 21  2  0
 21 22  1  0
 22 23  1  0
 23 24  1  0
 23 25  2  0
 25 26  1  0
 26 27  2  0
 27  8  1  0
 20 11  1  0
 27 22  1  0
  1 28  1  0
  1 29  1  0
  1 30  1  0
  2 31  1  0
  2 32  1  0
  6 33  1  0
  7 34  1  0
  9 35  1  0
 12 36  1  0
 13 37  1  0
 17 38  1  0
 18 39  1  0
 18 40  1  0
 18 41  1  0
 19 42  1  0
 20 43  1  0
 21 44  1  0
 24 45  1  0
 24 46  1  0
M  END
>  <Energy>  (157) 
119.14232198830732

>  <compound_id>  (157) 
3956

>  <target_id>  (157) 
1

>  <reference_id>  (157) 
197

>  <inspiration_ids>  (157) 
[136, 197]

>  <energy_score>  (157) 
41.837782765029246

>  <distance_score>  (157) 
1.3552658096962433

>  <path>  (157) 
/opt/xchem-fragalysis-2/maxwin/BulkDock/SCRATCH/505735/C3956-P197/C3956-P197.minimised.mol

>  <scratch_subdir>  (157) 
/opt/xchem-fragalysis-2/maxwin/BulkDock/SCRATCH/505735/C3956-P197

>  <fragmenstein_runtime>  (157) 
4.183645486831665

>  <fragmenstein_outcome>  (157) 
too moved

>  <fragmenstein_mode>  (157) 
expansion

>  <fragmenstein_error>  (157) 


$$$$
C3956-P136
     RDKit          3D

 46 48  0  0  0  0  0  0  0  0999 V2000
   -0.4870    0.7451   29.4735 C   0  0  0  0  0  0  0  0  0  0  0  0
   -0.1431    0.2871   28.0655 C   0  0  0  0  0  0  0  0  0  0  0  0
    0.3432   -1.0537   28.1130 O   0  0  0  0  0  0  0  0  0  0  0  0
   -0.6240   -1.9507   28.4229 C   0  0  0  0  0  0  0  0  0  0  0  0
   -1.8213   -1.7404   28.4797 O   0  0  0  0  0  0  0  0  0  0  0  0
    0.0578   -3.2076   28.7794 C   0  0  0  0  0  0  0  0  0  0  0  0
   -0.6070   -3.9664   29.6617 C   0  0  0  0  0  0  0  0  0  0  0  0
    0.0207   -4.8188   30.6829 C   0  0  0  0  0  0  0  0  0  0  0  0
    0.9565   -4.1525   31.3920 C   0  0  0  0  0  0  0  0  0  0  0  0
    1.1989   -4.3733   32.8101 C   0  0  0  0  0  0  0  0  0  0  0  0
    1.9317   -3.3500   33.5729 C   0  0  0  0  0  0  0  0  0  0  0  0
    3.0073   -3.6759   34.3960 C   0  0  0  0  0  0  0  0  0  0  0  0
    3.7310   -2.6602   35.0256 C   0  0  0  0  0  0  0  0  0  0  0  0
    3.3835   -1.3158   34.8432 C   0  0  0  0  0  0  0  0  0  0  0  0
    4.2086   -0.2693   35.5170 C   0  0  0  0  0  0  0  0  0  0  0  0
    5.3648   -0.4055   35.5395 O   0  0  0  0  0  0  0  0  0  0  0  0
    3.3230    0.8383   36.1143 N   0  0  0  0  0  0  0  0  0  0  0  0
    3.6783    2.0567   36.7812 C   0  0  0  0  0  0  0  0  0  0  0  0
    2.3151   -0.9802   34.0076 C   0  0  0  0  0  0  0  0  0  0  0  0
    1.5834   -1.9952   33.3939 C   0  0  0  0  0  0  0  0  0  0  0  0
    0.5618   -5.3969   33.4094 C   0  0  0  0  0  0  0  0  0  0  0  0
   -0.2580   -6.2257   32.6429 N   0  0  0  0  0  0  0  0  0  0  0  0
   -1.0125   -7.3343   32.9887 C   0  0  0  0  0  0  0  0  0  0  0  0
   -1.2025   -7.7396   34.2644 N   0  0  0  0  0  0  0  0  0  0  0  0
   -1.4915   -7.8789   31.8912 N   0  0  0  0  0  0  0  0  0  0  0  0
   -1.1567   -7.0743   30.8214 N   0  0  0  0  0  0  0  0  0  0  0  0
   -0.4928   -6.0308   31.2819 C   0  0  0  0  0  0  0  0  0  0  0  0
   -0.5975    1.8317   29.4752 H   0  0  0  0  0  0  0  0  0  0  0  0
   -1.4195    0.3062   29.8389 H   0  0  0  0  0  0  0  0  0  0  0  0
    0.3035    0.4731   30.1807 H   0  0  0  0  0  0  0  0  0  0  0  0
   -0.9942    0.3817   27.3809 H   0  0  0  0  0  0  0  0  0  0  0  0
    0.6674    0.9057   27.6668 H   0  0  0  0  0  0  0  0  0  0  0  0
    1.1177   -3.2871   28.5850 H   0  0  0  0  0  0  0  0  0  0  0  0
   -1.6513   -3.7380   29.8546 H   0  0  0  0  0  0  0  0  0  0  0  0
    1.3726   -3.2195   31.0136 H   0  0  0  0  0  0  0  0  0  0  0  0
    3.3143   -4.7092   34.5337 H   0  0  0  0  0  0  0  0  0  0  0  0
    4.5827   -2.9156   35.6544 H   0  0  0  0  0  0  0  0  0  0  0  0
    2.3481    0.6015   35.9783 H   0  0  0  0  0  0  0  0  0  0  0  0
    4.7658    2.1429   36.8325 H   0  0  0  0  0  0  0  0  0  0  0  0
    3.2597    2.8946   36.2198 H   0  0  0  0  0  0  0  0  0  0  0  0
    3.2537    2.0385   37.7873 H   0  0  0  0  0  0  0  0  0  0  0  0
    2.0595    0.0577   33.8128 H   0  0  0  0  0  0  0  0  0  0  0  0
    0.7445   -1.7153   32.7582 H   0  0  0  0  0  0  0  0  0  0  0  0
    0.6132   -5.5965   34.4716 H   0  0  0  0  0  0  0  0  0  0  0  0
   -0.5575   -7.4999   35.0060 H   0  0  0  0  0  0  0  0  0  0  0  0
   -1.5222   -8.7140   34.3852 H   0  0  0  0  0  0  0  0  0  0  0  0
  1  2  1  0
  2  3  1  0
  3  4  1  0
  4  5  2  0
  4  6  1  0
  6  7  2  3
  7  8  1  0
  8  9  2  0
  9 10  1  0
 10 11  1  0
 11 12  2  0
 12 13  1  0
 13 14  2  0
 14 15  1  0
 15 16  2  0
 15 17  1  0
 17 18  1  0
 14 19  1  0
 19 20  2  0
 10 21  2  0
 21 22  1  0
 22 23  1  0
 23 24  1  0
 23 25  2  0
 25 26  1  0
 26 27  2  0
 27  8  1  0
 20 11  1  0
 27 22  1  0
  1 28  1  0
  1 29  1  0
  1 30  1  0
  2 31  1  0
  2 32  1  0
  6 33  1  0
  7 34  1  0
  9 35  1  0
 12 36  1  0
 13 37  1  0
 17 38  1  0
 18 39  1  0
 18 40  1  0
 18 41  1  0
 19 42  1  0
 20 43  1  0
 21 44  1  0
 24 45  1  0
 24 46  1  0
M  END
>  <Energy>  (158) 
77.390751468347744

>  <compound_id>  (158) 
3956

>  <target_id>  (158) 
1

>  <reference_id>  (158) 
136

>  <inspiration_ids>  (158) 
[136, 198]

>  <energy_score>  (158) 
-8.553633872423518

>  <distance_score>  (158) 
1.9694424929252656

>  <path>  (158) 
/opt/xchem-fragalysis-2/maxwin/BulkDock/SCRATCH/505735/C3956-P136/C3956-P136.minimised.mol

>  <scratch_subdir>  (158) 
/opt/xchem-fragalysis-2/maxwin/BulkDock/SCRATCH/505735/C3956-P136

>  <fragmenstein_runtime>  (158) 
4.638808250427246

>  <fragmenstein_outcome>  (158) 
too moved

>  <fragmenstein_mode>  (158) 
expansion

>  <fragmenstein_error>  (158) 


$$$$
C3956-P198
     RDKit          3D

 46 48  0  0  0  0  0  0  0  0999 V2000
   -1.6007   -0.5542   30.4074 C   0  0  0  0  0  0  0  0  0  0  0  0
   -0.9614   -0.2286   29.0714 C   0  0  0  0  0  0  0  0  0  0  0  0
    0.4284   -0.6177   29.0751 O   0  0  0  0  0  0  0  0  0  0  0  0
    0.8557   -1.8885   28.8917 C   0  0  0  0  0  0  0  0  0  0  0  0
    2.0430   -2.1887   28.9388 O   0  0  0  0  0  0  0  0  0  0  0  0
   -0.1749   -2.9030   28.6486 C   0  0  0  0  0  0  0  0  0  0  0  0
   -0.4419   -4.0414   29.3073 C   0  0  0  0  0  0  0  0  0  0  0  0
    0.0309   -4.6293   30.5724 C   0  0  0  0  0  0  0  0  0  0  0  0
    0.8111   -3.8786   31.3707 C   0  0  0  0  0  0  0  0  0  0  0  0
    1.0492   -4.1291   32.7833 C   0  0  0  0  0  0  0  0  0  0  0  0
    1.7798   -3.1292   33.5760 C   0  0  0  0  0  0  0  0  0  0  0  0
    2.8547   -3.4808   34.3944 C   0  0  0  0  0  0  0  0  0  0  0  0
    3.5828   -2.4871   35.0545 C   0  0  0  0  0  0  0  0  0  0  0  0
    3.2480   -1.1382   34.8851 C   0  0  0  0  0  0  0  0  0  0  0  0
    4.0005   -0.0619   35.5881 C   0  0  0  0  0  0  0  0  0  0  0  0
    3.4013    0.7397   36.1830 O   0  0  0  0  0  0  0  0  0  0  0  0
    5.5159   -0.2218   35.3784 N   0  0  0  0  0  0  0  0  0  0  0  0
    6.6155    0.5131   35.9322 C   0  0  0  0  0  0  0  0  0  0  0  0
    2.1646   -0.7802   34.0813 C   0  0  0  0  0  0  0  0  0  0  0  0
    1.4324   -1.7726   33.4362 C   0  0  0  0  0  0  0  0  0  0  0  0
    0.4679   -5.2074   33.3378 C   0  0  0  0  0  0  0  0  0  0  0  0
   -0.2630   -6.0711   32.5259 N   0  0  0  0  0  0  0  0  0  0  0  0
   -0.9636   -7.2264   32.8326 C   0  0  0  0  0  0  0  0  0  0  0  0
   -1.1722   -7.6576   34.0989 N   0  0  0  0  0  0  0  0  0  0  0  0
   -1.3722   -7.7856   31.7147 N   0  0  0  0  0  0  0  0  0  0  0  0
   -1.0218   -6.9619   30.6622 N   0  0  0  0  0  0  0  0  0  0  0  0
   -0.4296   -5.8863   31.1520 C   0  0  0  0  0  0  0  0  0  0  0  0
   -2.6081   -0.1354   30.4658 H   0  0  0  0  0  0  0  0  0  0  0  0
   -1.6703   -1.6305   30.5802 H   0  0  0  0  0  0  0  0  0  0  0  0
   -1.0058   -0.1384   31.2273 H   0  0  0  0  0  0  0  0  0  0  0  0
   -1.5030   -0.6707   28.2298 H   0  0  0  0  0  0  0  0  0  0  0  0
   -0.9771    0.8559   28.9193 H   0  0  0  0  0  0  0  0  0  0  0  0
   -0.7864   -2.6819   27.7840 H   0  0  0  0  0  0  0  0  0  0  0  0
   -1.1945   -4.6436   28.8152 H   0  0  0  0  0  0  0  0  0  0  0  0
    1.2195   -2.9353   31.0352 H   0  0  0  0  0  0  0  0  0  0  0  0
    3.1469   -4.5208   34.5136 H   0  0  0  0  0  0  0  0  0  0  0  0
    4.3988   -2.7739   35.7133 H   0  0  0  0  0  0  0  0  0  0  0  0
    5.6984   -1.0799   34.8732 H   0  0  0  0  0  0  0  0  0  0  0  0
    6.2462    1.4338   36.3891 H   0  0  0  0  0  0  0  0  0  0  0  0
    7.0994   -0.1076   36.6897 H   0  0  0  0  0  0  0  0  0  0  0  0
    7.3234    0.7397   35.1324 H   0  0  0  0  0  0  0  0  0  0  0  0
    1.8903    0.2661   33.9674 H   0  0  0  0  0  0  0  0  0  0  0  0
    0.5892   -1.4712   32.8183 H   0  0  0  0  0  0  0  0  0  0  0  0
    0.5209   -5.4371   34.3935 H   0  0  0  0  0  0  0  0  0  0  0  0
   -0.5586   -7.3728   34.8514 H   0  0  0  0  0  0  0  0  0  0  0  0
   -1.4253   -8.6517   34.1908 H   0  0  0  0  0  0  0  0  0  0  0  0
  1  2  1  0
  2  3  1  0
  3  4  1  0
  4  5  2  0
  4  6  1  0
  6  7  2  3
  7  8  1  0
  8  9  2  0
  9 10  1  0
 10 11  1  0
 11 12  2  0
 12 13  1  0
 13 14  2  0
 14 15  1  0
 15 16  2  0
 15 17  1  0
 17 18  1  0
 14 19  1  0
 19 20  2  0
 10 21  2  0
 21 22  1  0
 22 23  1  0
 23 24  1  0
 23 25  2  0
 25 26  1  0
 26 27  2  0
 27  8  1  0
 20 11  1  0
 27 22  1  0
  1 28  1  0
  1 29  1  0
  1 30  1  0
  2 31  1  0
  2 32  1  0
  6 33  1  0
  7 34  1  0
  9 35  1  0
 12 36  1  0
 13 37  1  0
 17 38  1  0
 18 39  1  0
 18 40  1  0
 18 41  1  0
 19 42  1  0
 20 43  1  0
 21 44  1  0
 24 45  1  0
 24 46  1  0
M  END
>  <Energy>  (159) 
80.474089681064498

>  <compound_id>  (159) 
3956

>  <target_id>  (159) 
1

>  <reference_id>  (159) 
198

>  <inspiration_ids>  (159) 
[136, 198]

>  <energy_score>  (159) 
-5.470295659707062

>  <distance_score>  (159) 
2.2614636702129745

>  <path>  (159) 
/opt/xchem-fragalysis-2/maxwin/BulkDock/SCRATCH/505735/C3956-P198/C3956-P198.minimised.mol

>  <scratch_subdir>  (159) 
/opt/xchem-fragalysis-2/maxwin/BulkDock/SCRATCH/505735/C3956-P198

>  <fragmenstein_runtime>  (159) 
6.5201194286346436

>  <fragmenstein_outcome>  (159) 
too moved

>  <fragmenstein_mode>  (159) 
expansion

>  <fragmenstein_error>  (159) 


$$$$
C1711-P136
     RDKit          3D

 52 55  0  0  0  0  0  0  0  0999 V2000
   -0.5176   -2.3275   35.4509 N   0  0  0  0  0  0  0  0  0  0  0  0
   -0.5557   -2.9011   34.4427 C   0  0  0  0  0  0  0  0  0  0  0  0
   -0.5066   -3.5791   33.1822 C   0  0  0  0  0  0  0  0  0  0  0  0
   -1.1002   -4.8300   33.0504 C   0  0  0  0  0  0  0  0  0  0  0  0
   -0.9766   -5.5437   31.8638 C   0  0  0  0  0  0  0  0  0  0  0  0
   -1.2570   -6.8764   31.7664 O   0  0  0  0  0  0  0  0  0  0  0  0
   -0.7831   -7.6658   32.8800 C   0  0  0  0  0  0  0  0  0  0  0  0
    0.4782   -7.1625   33.6636 C   0  0  0  0  0  0  0  0  0  0  0  0
    1.4719   -6.5817   32.7553 N   0  0  0  0  0  0  0  0  0  0  0  0
    2.2772   -5.6950   32.9717 C   0  0  0  0  0  0  0  0  0  0  0  0
    2.5128   -5.2750   34.4571 C   0  0  0  0  0  0  0  0  0  0  0  0
    3.8194   -4.5945   34.7584 C   0  0  0  0  0  0  0  0  0  0  0  0
    5.0027   -5.3313   34.9299 C   0  0  0  0  0  0  0  0  0  0  0  0
    6.2230   -4.6849   35.1970 C   0  0  0  0  0  0  0  0  0  0  0  0
    6.2832   -3.2935   35.2980 C   0  0  0  0  0  0  0  0  0  0  0  0
    5.1129   -2.5873   35.1267 C   0  0  0  0  0  0  0  0  0  0  0  0
    3.9174   -3.2150   34.8598 C   0  0  0  0  0  0  0  0  0  0  0  0
    2.9017   -2.3237   34.6841 O   0  0  0  0  0  0  0  0  0  0  0  0
    3.5710   -1.0807   34.9946 C   0  0  0  0  0  0  0  0  0  0  0  0
    4.9911   -1.2346   35.1818 O   0  0  0  0  0  0  0  0  0  0  0  0
    3.1491   -4.8162   31.9584 N   0  0  0  0  0  0  0  0  0  0  0  0
    3.2818   -4.8956   30.5941 C   0  0  0  0  0  0  0  0  0  0  0  0
    4.3810   -4.2092   29.9234 C   0  0  0  0  0  0  0  0  0  0  0  0
    4.6966   -4.4793   28.6448 C   0  0  0  0  0  0  0  0  0  0  0  0
    3.8785   -5.4578   27.8948 C   0  0  0  0  0  0  0  0  0  0  0  0
    4.2076   -5.9133   26.8127 O   0  0  0  0  0  0  0  0  0  0  0  0
    2.7267   -5.8605   28.4982 N   0  0  0  0  0  0  0  0  0  0  0  0
    2.4783   -5.6445   29.8208 C   0  0  0  0  0  0  0  0  0  0  0  0
   -0.4739   -4.9123   30.7341 C   0  0  0  0  0  0  0  0  0  0  0  0
    0.1108   -3.6574   30.8471 C   0  0  0  0  0  0  0  0  0  0  0  0
    0.1796   -3.0472   32.0932 C   0  0  0  0  0  0  0  0  0  0  0  0
    0.9966   -1.9583   32.1815 O   0  0  0  0  0  0  0  0  0  0  0  0
   -1.5718   -5.2840   33.9152 H   0  0  0  0  0  0  0  0  0  0  0  0
   -1.6126   -7.8208   33.5785 H   0  0  0  0  0  0  0  0  0  0  0  0
   -0.5621   -8.6351   32.4361 H   0  0  0  0  0  0  0  0  0  0  0  0
    0.9325   -7.9626   34.2435 H   0  0  0  0  0  0  0  0  0  0  0  0
    0.1689   -6.4461   34.4297 H   0  0  0  0  0  0  0  0  0  0  0  0
    2.4583   -6.1710   35.0889 H   0  0  0  0  0  0  0  0  0  0  0  0
    1.6816   -4.6373   34.7685 H   0  0  0  0  0  0  0  0  0  0  0  0
    4.9887   -6.4179   34.8658 H   0  0  0  0  0  0  0  0  0  0  0  0
    7.1278   -5.2740   35.3333 H   0  0  0  0  0  0  0  0  0  0  0  0
    7.2172   -2.7838   35.5081 H   0  0  0  0  0  0  0  0  0  0  0  0
    3.4003   -0.3802   34.1696 H   0  0  0  0  0  0  0  0  0  0  0  0
    3.1336   -0.6629   35.9091 H   0  0  0  0  0  0  0  0  0  0  0  0
    3.7792   -4.2225   32.4829 H   0  0  0  0  0  0  0  0  0  0  0  0
    4.9666   -3.4915   30.4884 H   0  0  0  0  0  0  0  0  0  0  0  0
    5.5283   -4.0219   28.1256 H   0  0  0  0  0  0  0  0  0  0  0  0
    2.1197   -6.4532   27.9521 H   0  0  0  0  0  0  0  0  0  0  0  0
    1.6387   -6.1909   30.2271 H   0  0  0  0  0  0  0  0  0  0  0  0
   -0.4455   -5.4275   29.7801 H   0  0  0  0  0  0  0  0  0  0  0  0
    0.5860   -3.1956   29.9851 H   0  0  0  0  0  0  0  0  0  0  0  0
    1.0998   -1.6834   33.1099 H   0  0  0  0  0  0  0  0  0  0  0  0
  1  2  3  0
  2  3  1  0
  3  4  2  0
  4  5  1  0
  5  6  1  0
  6  7  1  0
  7  8  1  0
  8  9  1  0
  9 10  2  3
 10 11  1  0
 11 12  1  0
 12 13  2  0
 13 14  1  0
 14 15  2  0
 15 16  1  0
 16 17  2  0
 17 18  1  0
 18 19  1  0
 19 20  1  0
 10 21  1  0
 21 22  1  0
 22 23  1  0
 23 24  2  0
 24 25  1  0
 25 26  2  0
 25 27  1  0
 27 28  1  0
  5 29  2  0
 29 30  1  0
 30 31  2  0
 31 32  1  0
 31  3  1  0
 17 12  1  0
 28 22  2  0
 20 16  1  0
  4 33  1  0
  7 34  1  0
  7 35  1  0
  8 36  1  0
  8 37  1  0
 11 38  1  0
 11 39  1  0
 13 40  1  0
 14 41  1  0
 15 42  1  0
 19 43  1  0
 19 44  1  0
 21 45  1  0
 23 46  1  0
 24 47  1  0
 27 48  1  0
 28 49  1  0
 29 50  1  0
 30 51  1  0
 32 52  1  0
M  END
>  <Energy>  (160) 
106.5122165884836

>  <compound_id>  (160) 
1711

>  <target_id>  (160) 
1

>  <reference_id>  (160) 
136

>  <inspiration_ids>  (160) 
[136, 200]

>  <energy_score>  (160) 
-16.4342358499365

>  <distance_score>  (160) 
1.8109106557055046

>  <path>  (160) 
/opt/xchem-fragalysis-2/maxwin/BulkDock/SCRATCH/505735/C1711-P136/C1711-P136.minimised.mol

>  <scratch_subdir>  (160) 
/opt/xchem-fragalysis-2/maxwin/BulkDock/SCRATCH/505735/C1711-P136

>  <fragmenstein_runtime>  (160) 
6.7173566818237305

>  <fragmenstein_outcome>  (160) 
too moved

>  <fragmenstein_mode>  (160) 
expansion

>  <fragmenstein_error>  (160) 


$$$$
C1711-P200
     RDKit          3D

 52 55  0  0  0  0  0  0  0  0999 V2000
   -0.2327   -2.3915   35.3120 N   0  0  0  0  0  0  0  0  0  0  0  0
   -0.3182   -2.8878   34.2656 C   0  0  0  0  0  0  0  0  0  0  0  0
   -0.3899   -3.5636   33.0034 C   0  0  0  0  0  0  0  0  0  0  0  0
   -1.0045   -4.8085   32.9255 C   0  0  0  0  0  0  0  0  0  0  0  0
   -0.9461   -5.5539   31.7549 C   0  0  0  0  0  0  0  0  0  0  0  0
   -1.2504   -6.8834   31.6942 O   0  0  0  0  0  0  0  0  0  0  0  0
   -0.8139   -7.6664   32.8269 C   0  0  0  0  0  0  0  0  0  0  0  0
    0.4291   -7.1785   33.6457 C   0  0  0  0  0  0  0  0  0  0  0  0
    1.4186   -6.5476   32.7762 N   0  0  0  0  0  0  0  0  0  0  0  0
    2.2303   -5.6719   33.0054 C   0  0  0  0  0  0  0  0  0  0  0  0
    2.4967   -5.2087   34.4650 C   0  0  0  0  0  0  0  0  0  0  0  0
    3.6155   -5.9932   35.0915 C   0  0  0  0  0  0  0  0  0  0  0  0
    3.3604   -7.0578   35.9720 C   0  0  0  0  0  0  0  0  0  0  0  0
    4.4146   -7.8057   36.5267 C   0  0  0  0  0  0  0  0  0  0  0  0
    5.7407   -7.5053   36.2108 C   0  0  0  0  0  0  0  0  0  0  0  0
    5.9721   -6.4552   35.3492 C   0  0  0  0  0  0  0  0  0  0  0  0
    4.9434   -5.7191   34.8061 C   0  0  0  0  0  0  0  0  0  0  0  0
    5.3976   -4.7367   33.9764 O   0  0  0  0  0  0  0  0  0  0  0  0
    6.8260   -4.9320   34.0787 C   0  0  0  0  0  0  0  0  0  0  0  0
    7.1944   -6.0300   34.9335 O   0  0  0  0  0  0  0  0  0  0  0  0
    3.1205   -4.7971   32.0065 N   0  0  0  0  0  0  0  0  0  0  0  0
    3.2657   -4.8699   30.6412 C   0  0  0  0  0  0  0  0  0  0  0  0
    4.3627   -4.1743   29.9768 C   0  0  0  0  0  0  0  0  0  0  0  0
    4.7110   -4.4731   28.7124 C   0  0  0  0  0  0  0  0  0  0  0  0
    3.9321   -5.4943   27.9747 C   0  0  0  0  0  0  0  0  0  0  0  0
    4.3261   -6.0257   26.9503 O   0  0  0  0  0  0  0  0  0  0  0  0
    2.7491   -5.8614   28.5428 N   0  0  0  0  0  0  0  0  0  0  0  0
    2.4824   -5.6344   29.8612 C   0  0  0  0  0  0  0  0  0  0  0  0
   -0.4790   -4.9544   30.5927 C   0  0  0  0  0  0  0  0  0  0  0  0
    0.0918   -3.6870   30.6368 C   0  0  0  0  0  0  0  0  0  0  0  0
    0.2154   -3.0462   31.8641 C   0  0  0  0  0  0  0  0  0  0  0  0
    0.9994   -1.9376   31.9729 O   0  0  0  0  0  0  0  0  0  0  0  0
   -1.4265   -5.2353   33.8265 H   0  0  0  0  0  0  0  0  0  0  0  0
   -1.6637   -7.8088   33.5029 H   0  0  0  0  0  0  0  0  0  0  0  0
   -0.5919   -8.6425   32.3988 H   0  0  0  0  0  0  0  0  0  0  0  0
    0.8835   -7.9992   34.1948 H   0  0  0  0  0  0  0  0  0  0  0  0
    0.0879   -6.5091   34.4381 H   0  0  0  0  0  0  0  0  0  0  0  0
    1.5968   -5.2806   35.0800 H   0  0  0  0  0  0  0  0  0  0  0  0
    2.7531   -4.1423   34.4656 H   0  0  0  0  0  0  0  0  0  0  0  0
    2.3390   -7.3135   36.2482 H   0  0  0  0  0  0  0  0  0  0  0  0
    4.1944   -8.6213   37.2136 H   0  0  0  0  0  0  0  0  0  0  0  0
    6.5620   -8.0742   36.6325 H   0  0  0  0  0  0  0  0  0  0  0  0
    7.2233   -5.1194   33.0746 H   0  0  0  0  0  0  0  0  0  0  0  0
    7.2773   -4.0129   34.4698 H   0  0  0  0  0  0  0  0  0  0  0  0
    3.6327   -4.0960   32.5350 H   0  0  0  0  0  0  0  0  0  0  0  0
    4.9286   -3.4392   30.5388 H   0  0  0  0  0  0  0  0  0  0  0  0
    5.5494   -4.0214   28.1989 H   0  0  0  0  0  0  0  0  0  0  0  0
    2.1730   -6.4885   28.0009 H   0  0  0  0  0  0  0  0  0  0  0  0
    1.6511   -6.1965   30.2629 H   0  0  0  0  0  0  0  0  0  0  0  0
   -0.4751   -5.5053   29.6578 H   0  0  0  0  0  0  0  0  0  0  0  0
    0.5160   -3.2661   29.7291 H   0  0  0  0  0  0  0  0  0  0  0  0
    1.2692   -1.6501   31.0830 H   0  0  0  0  0  0  0  0  0  0  0  0
  1  2  3  0
  2  3  1  0
  3  4  2  0
  4  5  1  0
  5  6  1  0
  6  7  1  0
  7  8  1  0
  8  9  1  0
  9 10  2  3
 10 11  1  0
 11 12  1  0
 12 13  2  0
 13 14  1  0
 14 15  2  0
 15 16  1  0
 16 17  2  0
 17 18  1  0
 18 19  1  0
 19 20  1  0
 10 21  1  0
 21 22  1  0
 22 23  1  0
 23 24  2  0
 24 25  1  0
 25 26  2  0
 25 27  1  0
 27 28  1  0
  5 29  2  0
 29 30  1  0
 30 31  2  0
 31 32  1  0
 31  3  1  0
 17 12  1  0
 28 22  2  0
 20 16  1  0
  4 33  1  0
  7 34  1  0
  7 35  1  0
  8 36  1  0
  8 37  1  0
 11 38  1  0
 11 39  1  0
 13 40  1  0
 14 41  1  0
 15 42  1  0
 19 43  1  0
 19 44  1  0
 21 45  1  0
 23 46  1  0
 24 47  1  0
 27 48  1  0
 28 49  1  0
 29 50  1  0
 30 51  1  0
 32 52  1  0
M  END
>  <Energy>  (161) 
108.07170964057008

>  <compound_id>  (161) 
1711

>  <target_id>  (161) 
1

>  <reference_id>  (161) 
200

>  <inspiration_ids>  (161) 
[136, 200]

>  <energy_score>  (161) 
-14.87474279785252

>  <distance_score>  (161) 
1.7806922056780274

>  <path>  (161) 
/opt/xchem-fragalysis-2/maxwin/BulkDock/SCRATCH/505735/C1711-P200/C1711-P200.minimised.mol

>  <scratch_subdir>  (161) 
/opt/xchem-fragalysis-2/maxwin/BulkDock/SCRATCH/505735/C1711-P200

>  <fragmenstein_runtime>  (161) 
6.59586238861084

>  <fragmenstein_outcome>  (161) 
too moved

>  <fragmenstein_mode>  (161) 
expansion

>  <fragmenstein_error>  (161) 


$$$$
C3959-P136
     RDKit          3D

 60 64  0  0  0  0  0  0  0  0999 V2000
    3.5669    1.5265   31.7876 O   0  0  0  0  0  0  0  0  0  0  0  0
    3.2585    1.0131   32.7933 C   0  0  0  0  0  0  0  0  0  0  0  0
    4.2367    0.4079   33.8004 C   0  0  0  0  0  0  0  0  0  0  0  0
    3.9059   -1.0753   33.8733 C   0  0  0  0  0  0  0  0  0  0  0  0
    3.8989   -1.8532   32.6997 C   0  0  0  0  0  0  0  0  0  0  0  0
    3.3793   -3.1558   32.6971 C   0  0  0  0  0  0  0  0  0  0  0  0
    2.8585   -3.7114   33.8642 C   0  0  0  0  0  0  0  0  0  0  0  0
    2.8836   -2.9446   35.0050 C   0  0  0  0  0  0  0  0  0  0  0  0
    3.3919   -1.6662   35.0132 C   0  0  0  0  0  0  0  0  0  0  0  0
    3.2398   -1.0639   36.2251 O   0  0  0  0  0  0  0  0  0  0  0  0
    2.6876   -2.1475   37.0036 C   0  0  0  0  0  0  0  0  0  0  0  0
    2.4037   -3.3226   36.2203 O   0  0  0  0  0  0  0  0  0  0  0  0
    1.8422    0.6868   33.3715 N   0  0  0  0  0  0  0  0  0  0  0  0
    0.6156    0.8310   32.8218 C   0  0  0  0  0  0  0  0  0  0  0  0
   -0.4532    0.5011   33.5610 C   0  0  0  0  0  0  0  0  0  0  0  0
   -1.6313    0.1740   32.9551 N   0  0  0  0  0  0  0  0  0  0  0  0
   -1.7562    0.0476   31.5962 C   0  0  0  0  0  0  0  0  0  0  0  0
   -2.7874   -0.3955   31.1025 O   0  0  0  0  0  0  0  0  0  0  0  0
   -0.5869    0.4867   30.7297 C   0  0  0  0  0  0  0  0  0  0  0  0
   -0.7506    0.3813   29.3530 N   0  0  0  0  0  0  0  0  0  0  0  0
    0.2797    0.0610   28.3778 C   0  0  0  0  0  0  0  0  0  0  0  0
    1.3246   -0.7113   28.9735 O   0  0  0  0  0  0  0  0  0  0  0  0
    1.4611   -1.9938   28.5788 C   0  0  0  0  0  0  0  0  0  0  0  0
    2.2286   -2.3818   27.7135 O   0  0  0  0  0  0  0  0  0  0  0  0
    0.6441   -2.9172   29.3924 C   0  0  0  0  0  0  0  0  0  0  0  0
   -0.6685   -2.6384   29.7664 C   0  0  0  0  0  0  0  0  0  0  0  0
   -1.2460   -3.2904   30.8383 C   0  0  0  0  0  0  0  0  0  0  0  0
   -0.5666   -4.3421   31.4176 C   0  0  0  0  0  0  0  0  0  0  0  0
    0.6470   -4.8053   30.8775 C   0  0  0  0  0  0  0  0  0  0  0  0
    1.3017   -5.9511   31.4026 N   0  0  0  0  0  0  0  0  0  0  0  0
    0.5781   -6.7941   32.2597 C   0  0  0  0  0  0  0  0  0  0  0  0
   -0.5053   -7.4283   31.7857 N   0  0  0  0  0  0  0  0  0  0  0  0
   -1.3610   -7.8982   32.7022 C   0  0  0  0  0  0  0  0  0  0  0  0
   -1.1832   -7.7336   34.0539 C   0  0  0  0  0  0  0  0  0  0  0  0
    0.0008   -7.1616   34.4357 C   0  0  0  0  0  0  0  0  0  0  0  0
    0.9125   -6.7116   33.5576 N   0  0  0  0  0  0  0  0  0  0  0  0
    1.2810   -4.0481   29.8984 C   0  0  0  0  0  0  0  0  0  0  0  0
    0.5027    0.9228   31.3833 C   0  0  0  0  0  0  0  0  0  0  0  0
    4.1394    0.9148   34.7653 H   0  0  0  0  0  0  0  0  0  0  0  0
    5.2624    0.5414   33.4414 H   0  0  0  0  0  0  0  0  0  0  0  0
    4.2675   -1.4354   31.7616 H   0  0  0  0  0  0  0  0  0  0  0  0
    3.4095   -3.7275   31.7760 H   0  0  0  0  0  0  0  0  0  0  0  0
    2.4621   -4.7153   33.9055 H   0  0  0  0  0  0  0  0  0  0  0  0
    1.7567   -1.8029   37.4677 H   0  0  0  0  0  0  0  0  0  0  0  0
    3.3991   -2.4119   37.7947 H   0  0  0  0  0  0  0  0  0  0  0  0
    1.9363    0.3117   34.3085 H   0  0  0  0  0  0  0  0  0  0  0  0
   -0.4144    0.3478   34.6343 H   0  0  0  0  0  0  0  0  0  0  0  0
   -2.4039   -0.1819   33.5040 H   0  0  0  0  0  0  0  0  0  0  0  0
   -1.6987    0.1167   29.0862 H   0  0  0  0  0  0  0  0  0  0  0  0
    0.7236    0.9889   28.0038 H   0  0  0  0  0  0  0  0  0  0  0  0
   -0.1674   -0.4612   27.5266 H   0  0  0  0  0  0  0  0  0  0  0  0
   -1.2612   -1.9041   29.2449 H   0  0  0  0  0  0  0  0  0  0  0  0
   -2.2265   -2.9909   31.1943 H   0  0  0  0  0  0  0  0  0  0  0  0
   -1.0387   -4.8336   32.2637 H   0  0  0  0  0  0  0  0  0  0  0  0
    2.0430   -5.6177   32.0101 H   0  0  0  0  0  0  0  0  0  0  0  0
   -2.2312   -8.4103   32.3074 H   0  0  0  0  0  0  0  0  0  0  0  0
   -1.8917   -8.1057   34.7807 H   0  0  0  0  0  0  0  0  0  0  0  0
    0.2565   -7.0519   35.4858 H   0  0  0  0  0  0  0  0  0  0  0  0
    2.2744   -4.3145   29.5490 H   0  0  0  0  0  0  0  0  0  0  0  0
    1.3581    1.2698   30.8147 H   0  0  0  0  0  0  0  0  0  0  0  0
  1  2  2  0
  2  3  1  0
  3  4  1  0
  4  5  2  0
  5  6  1  0
  6  7  2  0
  7  8  1  0
  8  9  2  0
  9 10  1  0
 10 11  1  0
 11 12  1  0
  2 13  1  0
 13 14  1  0
 14 15  2  0
 15 16  1  0
 16 17  1  0
 17 18  2  0
 17 19  1  0
 19 20  1  0
 20 21  1  0
 21 22  1  0
 22 23  1  0
 23 24  2  0
 23 25  1  0
 25 26  2  0
 26 27  1  0
 27 28  2  0
 28 29  1  0
 29 30  1  0
 30 31  1  0
 31 32  2  0
 32 33  1  0
 33 34  2  0
 34 35  1  0
 35 36  2  0
 29 37  2  0
 19 38  2  0
  9  4  1  0
 38 14  1  0
 12  8  1  0
 37 25  1  0
 36 31  1  0
  3 39  1  0
  3 40  1  0
  5 41  1  0
  6 42  1  0
  7 43  1  0
 11 44  1  0
 11 45  1  0
 13 46  1  0
 15 47  1  0
 16 48  1  0
 20 49  1  0
 21 50  1  0
 21 51  1  0
 26 52  1  0
 27 53  1  0
 28 54  1  0
 30 55  1  0
 33 56  1  0
 34 57  1  0
 35 58  1  0
 37 59  1  0
 38 60  1  0
M  END
>  <Energy>  (162) 
52.716411470626575

>  <compound_id>  (162) 
3959

>  <target_id>  (162) 
1

>  <reference_id>  (162) 
136

>  <inspiration_ids>  (162) 
[136, 202]

>  <energy_score>  (162) 
-21.868296392167792

>  <distance_score>  (162) 
1.6339370265452577

>  <path>  (162) 
/opt/xchem-fragalysis-2/maxwin/BulkDock/SCRATCH/505735/C3959-P136/C3959-P136.minimised.mol

>  <scratch_subdir>  (162) 
/opt/xchem-fragalysis-2/maxwin/BulkDock/SCRATCH/505735/C3959-P136

>  <fragmenstein_runtime>  (162) 
7.602273941040039

>  <fragmenstein_outcome>  (162) 
too moved

>  <fragmenstein_mode>  (162) 
expansion

>  <fragmenstein_error>  (162) 


$$$$
C3959-P202
     RDKit          3D

 60 64  0  0  0  0  0  0  0  0999 V2000
    3.5577    1.5349   31.6884 O   0  0  0  0  0  0  0  0  0  0  0  0
    3.3053    1.0110   32.7042 C   0  0  0  0  0  0  0  0  0  0  0  0
    4.3319    0.3437   33.6208 C   0  0  0  0  0  0  0  0  0  0  0  0
    3.9520   -1.1280   33.6747 C   0  0  0  0  0  0  0  0  0  0  0  0
    3.8197   -1.8601   32.4789 C   0  0  0  0  0  0  0  0  0  0  0  0
    3.2416   -3.1367   32.4710 C   0  0  0  0  0  0  0  0  0  0  0  0
    2.7933   -3.7153   33.6569 C   0  0  0  0  0  0  0  0  0  0  0  0
    2.9472   -2.9973   34.8200 C   0  0  0  0  0  0  0  0  0  0  0  0
    3.5088   -1.7414   34.8323 C   0  0  0  0  0  0  0  0  0  0  0  0
    3.4808   -1.1812   36.0729 O   0  0  0  0  0  0  0  0  0  0  0  0
    2.9541   -2.2743   36.8558 C   0  0  0  0  0  0  0  0  0  0  0  0
    2.5491   -3.4023   36.0561 O   0  0  0  0  0  0  0  0  0  0  0  0
    1.9246    0.7285   33.3828 N   0  0  0  0  0  0  0  0  0  0  0  0
    0.6672    0.9347   32.9321 C   0  0  0  0  0  0  0  0  0  0  0  0
   -0.3606    0.6709   33.7506 C   0  0  0  0  0  0  0  0  0  0  0  0
   -1.6020    0.4320   33.2372 N   0  0  0  0  0  0  0  0  0  0  0  0
   -1.8393    0.3173   31.8924 C   0  0  0  0  0  0  0  0  0  0  0  0
   -2.9287   -0.0740   31.4847 O   0  0  0  0  0  0  0  0  0  0  0  0
   -0.7161    0.7087   30.9368 C   0  0  0  0  0  0  0  0  0  0  0  0
   -1.0115    0.7068   29.5790 N   0  0  0  0  0  0  0  0  0  0  0  0
   -0.1078    0.4008   28.4896 C   0  0  0  0  0  0  0  0  0  0  0  0
   -0.3454   -0.9490   28.1379 O   0  0  0  0  0  0  0  0  0  0  0  0
    0.6314   -1.7803   28.5449 C   0  0  0  0  0  0  0  0  0  0  0  0
    1.8200   -1.6979   28.2812 O   0  0  0  0  0  0  0  0  0  0  0  0
    0.0679   -2.7851   29.4721 C   0  0  0  0  0  0  0  0  0  0  0  0
   -1.1153   -2.5081   30.1676 C   0  0  0  0  0  0  0  0  0  0  0  0
   -1.4459   -3.2106   31.3071 C   0  0  0  0  0  0  0  0  0  0  0  0
   -0.6626   -4.2913   31.6591 C   0  0  0  0  0  0  0  0  0  0  0  0
    0.4086   -4.7225   30.8465 C   0  0  0  0  0  0  0  0  0  0  0  0
    1.1564   -5.8917   31.1764 N   0  0  0  0  0  0  0  0  0  0  0  0
    0.5450   -6.8140   32.0442 C   0  0  0  0  0  0  0  0  0  0  0  0
   -0.5611   -7.4488   31.6280 N   0  0  0  0  0  0  0  0  0  0  0  0
   -1.3668   -7.9176   32.5892 C   0  0  0  0  0  0  0  0  0  0  0  0
   -1.1202   -7.7512   33.9299 C   0  0  0  0  0  0  0  0  0  0  0  0
    0.0902   -7.1964   34.2486 C   0  0  0  0  0  0  0  0  0  0  0  0
    0.9568   -6.7533   33.3228 N   0  0  0  0  0  0  0  0  0  0  0  0
    0.8204   -3.9138   29.7922 C   0  0  0  0  0  0  0  0  0  0  0  0
    0.4490    1.0553   31.5076 C   0  0  0  0  0  0  0  0  0  0  0  0
    4.3220    0.8235   34.6042 H   0  0  0  0  0  0  0  0  0  0  0  0
    5.3333    0.4532   33.1918 H   0  0  0  0  0  0  0  0  0  0  0  0
    4.1281   -1.4223   31.5280 H   0  0  0  0  0  0  0  0  0  0  0  0
    3.1628   -3.6636   31.5261 H   0  0  0  0  0  0  0  0  0  0  0  0
    2.3488   -4.6985   33.6913 H   0  0  0  0  0  0  0  0  0  0  0  0
    2.0848   -1.9129   37.4164 H   0  0  0  0  0  0  0  0  0  0  0  0
    3.7216   -2.6010   37.5674 H   0  0  0  0  0  0  0  0  0  0  0  0
    2.0739    0.3282   34.3024 H   0  0  0  0  0  0  0  0  0  0  0  0
   -0.2498    0.5114   34.8180 H   0  0  0  0  0  0  0  0  0  0  0  0
   -2.3535    0.1298   33.8446 H   0  0  0  0  0  0  0  0  0  0  0  0
   -1.9644    0.4009   29.3906 H   0  0  0  0  0  0  0  0  0  0  0  0
    0.9394    0.6129   28.7343 H   0  0  0  0  0  0  0  0  0  0  0  0
   -0.3719    1.0191   27.6260 H   0  0  0  0  0  0  0  0  0  0  0  0
   -1.7670   -1.7016   29.8627 H   0  0  0  0  0  0  0  0  0  0  0  0
   -2.3035   -2.9150   31.9045 H   0  0  0  0  0  0  0  0  0  0  0  0
   -0.9375   -4.8198   32.5681 H   0  0  0  0  0  0  0  0  0  0  0  0
    1.9469   -5.5781   31.7319 H   0  0  0  0  0  0  0  0  0  0  0  0
   -2.2598   -8.4225   32.2394 H   0  0  0  0  0  0  0  0  0  0  0  0
   -1.8023   -8.1050   34.6891 H   0  0  0  0  0  0  0  0  0  0  0  0
    0.4041   -7.0840   35.2823 H   0  0  0  0  0  0  0  0  0  0  0  0
    1.7196   -4.1472   29.2301 H   0  0  0  0  0  0  0  0  0  0  0  0
    1.2729    1.3876   30.8871 H   0  0  0  0  0  0  0  0  0  0  0  0
  1  2  2  0
  2  3  1  0
  3  4  1  0
  4  5  2  0
  5  6  1  0
  6  7  2  0
  7  8  1  0
  8  9  2  0
  9 10  1  0
 10 11  1  0
 11 12  1  0
  2 13  1  0
 13 14  1  0
 14 15  2  0
 15 16  1  0
 16 17  1  0
 17 18  2  0
 17 19  1  0
 19 20  1  0
 20 21  1  0
 21 22  1  0
 22 23  1  0
 23 24  2  0
 23 25  1  0
 25 26  2  0
 26 27  1  0
 27 28  2  0
 28 29  1  0
 29 30  1  0
 30 31  1  0
 31 32  2  0
 32 33  1  0
 33 34  2  0
 34 35  1  0
 35 36  2  0
 29 37  2  0
 19 38  2  0
  9  4  1  0
 38 14  1  0
 12  8  1  0
 37 25  1  0
 36 31  1  0
  3 39  1  0
  3 40  1  0
  5 41  1  0
  6 42  1  0
  7 43  1  0
 11 44  1  0
 11 45  1  0
 13 46  1  0
 15 47  1  0
 16 48  1  0
 20 49  1  0
 21 50  1  0
 21 51  1  0
 26 52  1  0
 27 53  1  0
 28 54  1  0
 30 55  1  0
 33 56  1  0
 34 57  1  0
 35 58  1  0
 37 59  1  0
 38 60  1  0
M  END
>  <Energy>  (163) 
41.594314088025108

>  <compound_id>  (163) 
3959

>  <target_id>  (163) 
1

>  <reference_id>  (163) 
202

>  <inspiration_ids>  (163) 
[136, 202]

>  <energy_score>  (163) 
-32.990393774772485

>  <distance_score>  (163) 
1.547372351962555

>  <path>  (163) 
/opt/xchem-fragalysis-2/maxwin/BulkDock/SCRATCH/505735/C3959-P202/C3959-P202.minimised.mol

>  <scratch_subdir>  (163) 
/opt/xchem-fragalysis-2/maxwin/BulkDock/SCRATCH/505735/C3959-P202

>  <fragmenstein_runtime>  (163) 
7.881804943084717

>  <fragmenstein_outcome>  (163) 
too moved

>  <fragmenstein_mode>  (163) 
expansion

>  <fragmenstein_error>  (163) 


$$$$
C3960-P137
     RDKit          3D

 68 72  0  0  0  0  0  0  0  0999 V2000
  -18.2722    1.1372   10.9476 C   0  0  0  0  0  0  0  0  0  0  0  0
  -20.0331    1.3305   11.0377 S   0  0  0  0  0  0  0  0  0  0  0  0
  -20.3377    2.4437   10.1555 O   0  0  0  0  0  0  0  0  0  0  0  0
  -20.7455   -0.0339   10.9633 N   0  0  0  0  0  0  0  0  0  0  0  0
  -20.1195   -1.2916   11.2712 C   0  0  0  0  0  0  0  0  0  0  0  0
  -19.7050   -1.3736   12.6619 N   0  0  0  0  0  0  0  0  0  0  0  0
  -20.5390   -2.0144   13.5956 C   0  0  0  0  0  0  0  0  0  0  0  0
  -21.6819   -1.5116   14.0965 C   0  0  0  0  0  0  0  0  0  0  0  0
  -22.5311   -2.2492   15.0085 C   0  0  0  0  0  0  0  0  0  0  0  0
  -23.6696   -1.6970   15.5105 N   0  0  0  0  0  0  0  0  0  0  0  0
  -24.4686   -0.4350   15.0574 C   0  0  0  0  0  0  0  0  0  0  0  0
  -24.3107    0.2725   14.1393 O   0  0  0  0  0  0  0  0  0  0  0  0
  -25.5322   -0.1850   16.1147 C   0  0  0  0  0  0  0  0  0  0  0  0
  -26.6782   -1.1323   15.9999 C   0  0  0  0  0  0  0  0  0  0  0  0
  -27.7440   -0.8640   15.1296 C   0  0  0  0  0  0  0  0  0  0  0  0
  -28.8007   -1.7763   14.9934 C   0  0  0  0  0  0  0  0  0  0  0  0
  -28.8042   -2.9702   15.7181 C   0  0  0  0  0  0  0  0  0  0  0  0
  -27.7431   -3.2160   16.5621 C   0  0  0  0  0  0  0  0  0  0  0  0
  -26.7074   -2.3252   16.6989 C   0  0  0  0  0  0  0  0  0  0  0  0
  -25.7454   -2.7762   17.5549 O   0  0  0  0  0  0  0  0  0  0  0  0
  -26.3456   -4.0138   18.0007 C   0  0  0  0  0  0  0  0  0  0  0  0
  -27.5774   -4.3266   17.3273 O   0  0  0  0  0  0  0  0  0  0  0  0
  -22.1876   -3.4999   15.3487 C   0  0  0  0  0  0  0  0  0  0  0  0
  -21.0540   -4.0749   14.8449 N   0  0  0  0  0  0  0  0  0  0  0  0
  -20.1795   -3.4316   14.0117 C   0  0  0  0  0  0  0  0  0  0  0  0
  -19.1724   -3.9893   13.5816 O   0  0  0  0  0  0  0  0  0  0  0  0
  -20.4084    1.9203   12.6690 C   0  0  0  0  0  0  0  0  0  0  0  0
  -21.7320    2.2824   12.9166 C   0  0  0  0  0  0  0  0  0  0  0  0
  -22.1794    2.4270   14.2305 C   0  0  0  0  0  0  0  0  0  0  0  0
  -21.3332    2.1734   15.3095 C   0  0  0  0  0  0  0  0  0  0  0  0
  -21.7782    2.0919   16.6329 N   0  0  0  0  0  0  0  0  0  0  0  0
  -23.1588    2.4804   16.9927 C   0  0  0  0  0  0  0  0  0  0  0  0
  -23.4733    2.1653   18.4845 C   0  0  0  0  0  0  0  0  0  0  0  0
  -22.3012    2.1894   19.3813 N   0  0  0  0  0  0  0  0  0  0  0  0
  -21.2861    1.2188   18.8960 C   0  0  0  0  0  0  0  0  0  0  0  0
  -21.3275    0.9050   17.3831 C   0  0  0  0  0  0  0  0  0  0  0  0
  -19.9682    2.0172   15.0080 C   0  0  0  0  0  0  0  0  0  0  0  0
  -19.4927    1.8667   13.7057 C   0  0  0  0  0  0  0  0  0  0  0  0
  -18.0212    0.8045    9.9372 H   0  0  0  0  0  0  0  0  0  0  0  0
  -17.8032    2.1075   11.1277 H   0  0  0  0  0  0  0  0  0  0  0  0
  -17.9146    0.4072   11.6731 H   0  0  0  0  0  0  0  0  0  0  0  0
  -19.2589   -1.4230   10.6132 H   0  0  0  0  0  0  0  0  0  0  0  0
  -20.8094   -2.1083   11.0272 H   0  0  0  0  0  0  0  0  0  0  0  0
  -18.8105   -1.8767   12.6763 H   0  0  0  0  0  0  0  0  0  0  0  0
  -21.9934   -0.5216   13.7855 H   0  0  0  0  0  0  0  0  0  0  0  0
  -24.1299   -2.1217   16.3096 H   0  0  0  0  0  0  0  0  0  0  0  0
  -25.8939    0.8452   16.0077 H   0  0  0  0  0  0  0  0  0  0  0  0
  -25.0791   -0.2359   17.1106 H   0  0  0  0  0  0  0  0  0  0  0  0
  -27.7565    0.0511   14.5385 H   0  0  0  0  0  0  0  0  0  0  0  0
  -29.6189   -1.5552   14.3111 H   0  0  0  0  0  0  0  0  0  0  0  0
  -29.6135   -3.6847   15.6158 H   0  0  0  0  0  0  0  0  0  0  0  0
  -25.6325   -4.8271   17.8236 H   0  0  0  0  0  0  0  0  0  0  0  0
  -26.5371   -3.9430   19.0779 H   0  0  0  0  0  0  0  0  0  0  0  0
  -22.7982   -4.1290   15.9845 H   0  0  0  0  0  0  0  0  0  0  0  0
  -20.8792   -5.0714   14.9654 H   0  0  0  0  0  0  0  0  0  0  0  0
  -22.4470    2.3419   12.0980 H   0  0  0  0  0  0  0  0  0  0  0  0
  -23.2350    2.6339   14.3706 H   0  0  0  0  0  0  0  0  0  0  0  0
  -23.3048    3.5487   16.8232 H   0  0  0  0  0  0  0  0  0  0  0  0
  -23.8886    1.9546   16.3768 H   0  0  0  0  0  0  0  0  0  0  0  0
  -23.9415    1.1768   18.5605 H   0  0  0  0  0  0  0  0  0  0  0  0
  -24.2211    2.8783   18.8496 H   0  0  0  0  0  0  0  0  0  0  0  0
  -21.8799    3.1137   19.2586 H   0  0  0  0  0  0  0  0  0  0  0  0
  -21.4023    0.2827   19.4531 H   0  0  0  0  0  0  0  0  0  0  0  0
  -20.3002    1.6161   19.1622 H   0  0  0  0  0  0  0  0  0  0  0  0
  -22.0530    0.0976   17.2144 H   0  0  0  0  0  0  0  0  0  0  0  0
  -20.3774    0.5014   17.0464 H   0  0  0  0  0  0  0  0  0  0  0  0
  -19.2613    1.9788   15.8194 H   0  0  0  0  0  0  0  0  0  0  0  0
  -18.4479    1.6303   13.5524 H   0  0  0  0  0  0  0  0  0  0  0  0
  1  2  1  0
  2  3  2  0
  2  4  2  0
  4  5  1  0
  5  6  1  0
  6  7  1  0
  7  8  2  0
  8  9  1  0
  9 10  1  0
 10 11  1  0
 11 12  2  0
 11 13  1  0
 13 14  1  0
 14 15  2  0
 15 16  1  0
 16 17  2  0
 17 18  1  0
 18 19  2  0
 19 20  1  0
 20 21  1  0
 21 22  1  0
  9 23  2  0
 23 24  1  0
 24 25  1  0
 25 26  2  0
  2 27  1  0
 27 28  2  0
 28 29  1  0
 29 30  2  0
 30 31  1  0
 31 32  1  0
 32 33  1  0
 33 34  1  0
 34 35  1  0
 35 36  1  0
 30 37  1  0
 37 38  2  0
 25  7  1  0
 38 27  1  0
 19 14  1  0
 36 31  1  0
 22 18  1  0
  1 39  1  0
  1 40  1  0
  1 41  1  0
  5 42  1  0
  5 43  1  0
  6 44  1  0
  8 45  1  0
 10 46  1  0
 13 47  1  0
 13 48  1  0
 15 49  1  0
 16 50  1  0
 17 51  1  0
 21 52  1  0
 21 53  1  0
 23 54  1  0
 24 55  1  0
 28 56  1  0
 29 57  1  0
 32 58  1  0
 32 59  1  0
 33 60  1  0
 33 61  1  0
 34 62  1  0
 35 63  1  0
 35 64  1  0
 36 65  1  0
 36 66  1  0
 37 67  1  0
 38 68  1  0
M  END
>  <Energy>  (164) 
115.12616352364097

>  <compound_id>  (164) 
3960

>  <target_id>  (164) 
1

>  <reference_id>  (164) 
137

>  <inspiration_ids>  (164) 
[137, 18]

>  <energy_score>  (164) 
-389.6992115473851

>  <distance_score>  (164) 
1.1039341167093175

>  <path>  (164) 
/opt/xchem-fragalysis-2/maxwin/BulkDock/SCRATCH/505735/C3960-P137/C3960-P137.minimised.mol

>  <scratch_subdir>  (164) 
/opt/xchem-fragalysis-2/maxwin/BulkDock/SCRATCH/505735/C3960-P137

>  <fragmenstein_runtime>  (164) 
9.201491117477417

>  <fragmenstein_outcome>  (164) 
too moved

>  <fragmenstein_mode>  (164) 
expansion

>  <fragmenstein_error>  (164) 


$$$$
C3960-P18
     RDKit          3D

 68 72  0  0  0  0  0  0  0  0999 V2000
  -18.3944    1.0371   11.0528 C   0  0  0  0  0  0  0  0  0  0  0  0
  -20.1464    1.2759   11.2024 S   0  0  0  0  0  0  0  0  0  0  0  0
  -20.4546    2.3300   10.2496 O   0  0  0  0  0  0  0  0  0  0  0  0
  -20.9037   -0.0627   11.2410 N   0  0  0  0  0  0  0  0  0  0  0  0
  -20.2642   -1.3318   11.4553 C   0  0  0  0  0  0  0  0  0  0  0  0
  -19.7439   -1.4158   12.8038 N   0  0  0  0  0  0  0  0  0  0  0  0
  -20.5538   -1.9555   13.8162 C   0  0  0  0  0  0  0  0  0  0  0  0
  -21.5487   -1.3256   14.4707 C   0  0  0  0  0  0  0  0  0  0  0  0
  -22.3121   -1.9658   15.5282 C   0  0  0  0  0  0  0  0  0  0  0  0
  -23.3338   -1.3292   16.1746 N   0  0  0  0  0  0  0  0  0  0  0  0
  -24.0282   -0.0953   15.8703 C   0  0  0  0  0  0  0  0  0  0  0  0
  -23.8320    0.7240   15.0172 O   0  0  0  0  0  0  0  0  0  0  0  0
  -25.1774    0.1003   16.8561 C   0  0  0  0  0  0  0  0  0  0  0  0
  -26.3590   -0.7688   16.5266 C   0  0  0  0  0  0  0  0  0  0  0  0
  -27.3666   -0.3287   15.6541 C   0  0  0  0  0  0  0  0  0  0  0  0
  -28.4515   -1.1618   15.3246 C   0  0  0  0  0  0  0  0  0  0  0  0
  -28.5455   -2.4506   15.8544 C   0  0  0  0  0  0  0  0  0  0  0  0
  -27.5406   -2.8700   16.6981 C   0  0  0  0  0  0  0  0  0  0  0  0
  -26.4778   -2.0572   17.0210 C   0  0  0  0  0  0  0  0  0  0  0  0
  -25.5821   -2.6821   17.8383 O   0  0  0  0  0  0  0  0  0  0  0  0
  -26.2398   -3.9530   18.0382 C   0  0  0  0  0  0  0  0  0  0  0  0
  -27.4599   -4.0925   17.2876 O   0  0  0  0  0  0  0  0  0  0  0  0
  -22.0059   -3.2278   15.8735 C   0  0  0  0  0  0  0  0  0  0  0  0
  -21.0274   -3.9183   15.2157 N   0  0  0  0  0  0  0  0  0  0  0  0
  -20.2925   -3.4024   14.1879 C   0  0  0  0  0  0  0  0  0  0  0  0
  -19.4744   -4.0803   13.5681 O   0  0  0  0  0  0  0  0  0  0  0  0
  -20.4173    2.0082   12.8009 C   0  0  0  0  0  0  0  0  0  0  0  0
  -21.6353    2.6483   13.0147 C   0  0  0  0  0  0  0  0  0  0  0  0
  -21.9359    3.1790   14.2739 C   0  0  0  0  0  0  0  0  0  0  0  0
  -21.0483    3.0693   15.3538 C   0  0  0  0  0  0  0  0  0  0  0  0
  -21.3359    3.5431   16.6458 N   0  0  0  0  0  0  0  0  0  0  0  0
  -22.6246    4.2519   16.8479 C   0  0  0  0  0  0  0  0  0  0  0  0
  -22.9125    4.5193   18.3487 C   0  0  0  0  0  0  0  0  0  0  0  0
  -21.6932    4.6527   19.1649 N   0  0  0  0  0  0  0  0  0  0  0  0
  -20.9407    3.3777   19.1008 C   0  0  0  0  0  0  0  0  0  0  0  0
  -21.0241    2.6106   17.7556 C   0  0  0  0  0  0  0  0  0  0  0  0
  -19.8002    2.4845   15.0736 C   0  0  0  0  0  0  0  0  0  0  0  0
  -19.4813    1.9399   13.8237 C   0  0  0  0  0  0  0  0  0  0  0  0
  -18.1906    0.6546   10.0494 H   0  0  0  0  0  0  0  0  0  0  0  0
  -17.8988    2.0040   11.1697 H   0  0  0  0  0  0  0  0  0  0  0  0
  -18.0202    0.3341   11.7956 H   0  0  0  0  0  0  0  0  0  0  0  0
  -19.4586   -1.4691   10.7284 H   0  0  0  0  0  0  0  0  0  0  0  0
  -20.9820   -2.1390   11.2663 H   0  0  0  0  0  0  0  0  0  0  0  0
  -18.9188   -2.0311   12.7482 H   0  0  0  0  0  0  0  0  0  0  0  0
  -21.7730   -0.2956   14.2177 H   0  0  0  0  0  0  0  0  0  0  0  0
  -23.8289   -1.8139   16.9175 H   0  0  0  0  0  0  0  0  0  0  0  0
  -25.4720    1.1574   16.8389 H   0  0  0  0  0  0  0  0  0  0  0  0
  -24.8253   -0.0849   17.8785 H   0  0  0  0  0  0  0  0  0  0  0  0
  -27.3107    0.6649   15.2105 H   0  0  0  0  0  0  0  0  0  0  0  0
  -29.2188   -0.7994   14.6436 H   0  0  0  0  0  0  0  0  0  0  0  0
  -29.3745   -3.1022   15.6028 H   0  0  0  0  0  0  0  0  0  0  0  0
  -25.5503   -4.7508   17.7389 H   0  0  0  0  0  0  0  0  0  0  0  0
  -26.4656   -4.0665   19.1050 H   0  0  0  0  0  0  0  0  0  0  0  0
  -22.5262   -3.7725   16.6521 H   0  0  0  0  0  0  0  0  0  0  0  0
  -20.8411   -4.9039   15.4064 H   0  0  0  0  0  0  0  0  0  0  0  0
  -22.3725    2.7042   12.2165 H   0  0  0  0  0  0  0  0  0  0  0  0
  -22.9127    3.6379   14.3814 H   0  0  0  0  0  0  0  0  0  0  0  0
  -22.5802    5.2117   16.3192 H   0  0  0  0  0  0  0  0  0  0  0  0
  -23.4682    3.6685   16.4598 H   0  0  0  0  0  0  0  0  0  0  0  0
  -23.5291    3.7081   18.7573 H   0  0  0  0  0  0  0  0  0  0  0  0
  -23.5131    5.4311   18.4416 H   0  0  0  0  0  0  0  0  0  0  0  0
  -21.1135    5.3364   18.6700 H   0  0  0  0  0  0  0  0  0  0  0  0
  -21.2783    2.7180   19.9088 H   0  0  0  0  0  0  0  0  0  0  0  0
  -19.8895    3.6048   19.3160 H   0  0  0  0  0  0  0  0  0  0  0  0
  -21.8169    1.8527   17.8132 H   0  0  0  0  0  0  0  0  0  0  0  0
  -20.0808    2.0806   17.6242 H   0  0  0  0  0  0  0  0  0  0  0  0
  -19.0444    2.4575   15.8464 H   0  0  0  0  0  0  0  0  0  0  0  0
  -18.5246    1.4490   13.6957 H   0  0  0  0  0  0  0  0  0  0  0  0
  1  2  1  0
  2  3  2  0
  2  4  2  0
  4  5  1  0
  5  6  1  0
  6  7  1  0
  7  8  2  0
  8  9  1  0
  9 10  1  0
 10 11  1  0
 11 12  2  0
 11 13  1  0
 13 14  1  0
 14 15  2  0
 15 16  1  0
 16 17  2  0
 17 18  1  0
 18 19  2  0
 19 20  1  0
 20 21  1  0
 21 22  1  0
  9 23  2  0
 23 24  1  0
 24 25  1  0
 25 26  2  0
  2 27  1  0
 27 28  2  0
 28 29  1  0
 29 30  2  0
 30 31  1  0
 31 32  1  0
 32 33  1  0
 33 34  1  0
 34 35  1  0
 35 36  1  0
 30 37  1  0
 37 38  2  0
 25  7  1  0
 38 27  1  0
 19 14  1  0
 36 31  1  0
 22 18  1  0
  1 39  1  0
  1 40  1  0
  1 41  1  0
  5 42  1  0
  5 43  1  0
  6 44  1  0
  8 45  1  0
 10 46  1  0
 13 47  1  0
 13 48  1  0
 15 49  1  0
 16 50  1  0
 17 51  1  0
 21 52  1  0
 21 53  1  0
 23 54  1  0
 24 55  1  0
 28 56  1  0
 29 57  1  0
 32 58  1  0
 32 59  1  0
 33 60  1  0
 33 61  1  0
 34 62  1  0
 35 63  1  0
 35 64  1  0
 36 65  1  0
 36 66  1  0
 37 67  1  0
 38 68  1  0
M  END
>  <Energy>  (165) 
99.249646192613767

>  <compound_id>  (165) 
3960

>  <target_id>  (165) 
1

>  <reference_id>  (165) 
18

>  <inspiration_ids>  (165) 
[137, 18]

>  <energy_score>  (165) 
-64.20968037698552

>  <distance_score>  (165) 
0.7744543343984105

>  <path>  (165) 
/opt/xchem-fragalysis-2/maxwin/BulkDock/SCRATCH/505735/C3960-P18/C3960-P18.minimised.mol

>  <scratch_subdir>  (165) 
/opt/xchem-fragalysis-2/maxwin/BulkDock/SCRATCH/505735/C3960-P18

>  <fragmenstein_runtime>  (165) 
12.732803583145142

>  <fragmenstein_outcome>  (165) 
acceptable

>  <fragmenstein_mode>  (165) 
expansion

>  <fragmenstein_error>  (165) 


$$$$
C3962-P137
     RDKit          3D

 52 55  0  0  0  0  0  0  0  0999 V2000
  -23.3149   -1.1817   11.3454 O   0  0  0  0  0  0  0  0  0  0  0  0
  -22.6753   -0.6798   12.1877 C   0  0  0  0  0  0  0  0  0  0  0  0
  -22.9236    0.7270   12.7695 C   0  0  0  0  0  0  0  0  0  0  0  0
  -23.5780    0.5256   14.1350 C   0  0  0  0  0  0  0  0  0  0  0  0
  -24.9984    0.3850   14.1869 C   0  0  0  0  0  0  0  0  0  0  0  0
  -25.6491   -0.2269   15.2699 C   0  0  0  0  0  0  0  0  0  0  0  0
  -24.8879   -0.7304   16.3177 C   0  0  0  0  0  0  0  0  0  0  0  0
  -23.5050   -0.5394   16.2719 C   0  0  0  0  0  0  0  0  0  0  0  0
  -22.8232    0.1255   15.2401 C   0  0  0  0  0  0  0  0  0  0  0  0
  -21.3565   -0.0044   15.3751 N   0  0  0  0  0  0  0  0  0  0  0  0
  -20.0408    1.2330   14.8542 N   0  0  0  0  0  0  0  0  0  0  0  0
  -18.3845    0.5721   13.9862 S   0  0  0  0  0  0  0  0  0  0  0  0
  -17.7112   -0.2172   14.9870 O   0  0  0  0  0  0  0  0  0  0  0  0
  -18.8463    0.0330   12.7291 O   0  0  0  0  0  0  0  0  0  0  0  0
  -17.2403    1.9645   13.5521 N   0  0  0  0  0  0  0  0  0  0  0  0
  -16.1450    2.2969   14.5497 C   0  0  0  0  0  0  0  0  0  0  0  0
  -14.7082    1.8255   14.1459 C   0  0  0  0  0  0  0  0  0  0  0  0
  -14.1565    2.5019   12.9663 N   0  0  0  0  0  0  0  0  0  0  0  0
  -15.2429    2.7438   12.0023 C   0  0  0  0  0  0  0  0  0  0  0  0
  -16.5092    1.8025   12.1629 C   0  0  0  0  0  0  0  0  0  0  0  0
  -21.3463   -0.4886   16.7954 C   0  0  0  0  0  0  0  0  0  0  0  0
  -22.6393   -1.0609   17.1974 O   0  0  0  0  0  0  0  0  0  0  0  0
  -21.4991   -1.2504   13.0394 N   0  0  0  0  0  0  0  0  0  0  0  0
  -20.9759   -2.4915   13.0884 C   0  0  0  0  0  0  0  0  0  0  0  0
  -21.3731   -3.5211   12.1829 C   0  0  0  0  0  0  0  0  0  0  0  0
  -20.7820   -4.7219   12.2292 C   0  0  0  0  0  0  0  0  0  0  0  0
  -19.7074   -4.9723   13.2110 C   0  0  0  0  0  0  0  0  0  0  0  0
  -18.9500   -5.9301   13.1322 O   0  0  0  0  0  0  0  0  0  0  0  0
  -19.5413   -4.0148   14.1629 N   0  0  0  0  0  0  0  0  0  0  0  0
  -20.1248   -2.7876   14.0845 C   0  0  0  0  0  0  0  0  0  0  0  0
  -23.5853    1.2820   12.0956 H   0  0  0  0  0  0  0  0  0  0  0  0
  -21.9909    1.2939   12.8427 H   0  0  0  0  0  0  0  0  0  0  0  0
  -25.5952    0.6673   13.3187 H   0  0  0  0  0  0  0  0  0  0  0  0
  -26.7277   -0.3573   15.2574 H   0  0  0  0  0  0  0  0  0  0  0  0
  -25.3475   -1.2631   17.1425 H   0  0  0  0  0  0  0  0  0  0  0  0
  -19.7049    1.6366   15.7344 H   0  0  0  0  0  0  0  0  0  0  0  0
  -16.4189    1.9095   15.5307 H   0  0  0  0  0  0  0  0  0  0  0  0
  -16.1551    3.3894   14.6400 H   0  0  0  0  0  0  0  0  0  0  0  0
  -14.7354    0.7480   13.9475 H   0  0  0  0  0  0  0  0  0  0  0  0
  -14.0218    1.9516   14.9861 H   0  0  0  0  0  0  0  0  0  0  0  0
  -13.7339    3.3909   13.2472 H   0  0  0  0  0  0  0  0  0  0  0  0
  -14.8438    2.6321   10.9889 H   0  0  0  0  0  0  0  0  0  0  0  0
  -15.5816    3.7819   12.1080 H   0  0  0  0  0  0  0  0  0  0  0  0
  -16.2135    0.7539   12.0415 H   0  0  0  0  0  0  0  0  0  0  0  0
  -17.2427    2.0582   11.3907 H   0  0  0  0  0  0  0  0  0  0  0  0
  -21.1246    0.3446   17.4736 H   0  0  0  0  0  0  0  0  0  0  0  0
  -20.5820   -1.2612   16.9202 H   0  0  0  0  0  0  0  0  0  0  0  0
  -21.2249   -0.5683   13.7401 H   0  0  0  0  0  0  0  0  0  0  0  0
  -22.1560   -3.3345   11.4574 H   0  0  0  0  0  0  0  0  0  0  0  0
  -21.0408   -5.5321   11.5625 H   0  0  0  0  0  0  0  0  0  0  0  0
  -18.8077   -4.1904   14.8272 H   0  0  0  0  0  0  0  0  0  0  0  0
  -19.7947   -2.0779   14.8291 H   0  0  0  0  0  0  0  0  0  0  0  0
  1  2  2  0
  2  3  1  0
  3  4  1  0
  4  5  2  0
  5  6  1  0
  6  7  2  0
  7  8  1  0
  8  9  2  0
  9 10  1  0
 10 11  1  0
 11 12  1  0
 12 13  2  0
 12 14  2  0
 12 15  1  0
 15 16  1  0
 16 17  1  0
 17 18  1  0
 18 19  1  0
 19 20  1  0
 10 21  1  0
 21 22  1  0
  2 23  1  0
 23 24  1  0
 24 25  1  0
 25 26  2  0
 26 27  1  0
 27 28  2  0
 27 29  1  0
 29 30  1  0
  9  4  1  0
 20 15  1  0
 30 24  2  0
 22  8  1  0
  3 31  1  0
  3 32  1  0
  5 33  1  0
  6 34  1  0
  7 35  1  0
 11 36  1  0
 16 37  1  0
 16 38  1  0
 17 39  1  0
 17 40  1  0
 18 41  1  0
 19 42  1  0
 19 43  1  0
 20 44  1  0
 20 45  1  0
 21 46  1  0
 21 47  1  0
 23 48  1  0
 25 49  1  0
 26 50  1  0
 29 51  1  0
 30 52  1  0
M  END
>  <Energy>  (166) 
90.131498674252114

>  <compound_id>  (166) 
3962

>  <target_id>  (166) 
1

>  <reference_id>  (166) 
137

>  <inspiration_ids>  (166) 
[137, 100]

>  <energy_score>  (166) 
-25.127000105045028

>  <distance_score>  (166) 
4.4031635225648245

>  <path>  (166) 
/opt/xchem-fragalysis-2/maxwin/BulkDock/SCRATCH/505735/C3962-P137/C3962-P137.minimised.mol

>  <scratch_subdir>  (166) 
/opt/xchem-fragalysis-2/maxwin/BulkDock/SCRATCH/505735/C3962-P137

>  <fragmenstein_runtime>  (166) 
5.6270458698272705

>  <fragmenstein_outcome>  (166) 
too moved

>  <fragmenstein_mode>  (166) 
expansion

>  <fragmenstein_error>  (166) 


$$$$
C3962-P100
     RDKit          3D

 52 55  0  0  0  0  0  0  0  0999 V2000
  -20.2647   -0.0852   11.2798 O   0  0  0  0  0  0  0  0  0  0  0  0
  -21.3850   -0.1885   11.6998 C   0  0  0  0  0  0  0  0  0  0  0  0
  -22.3685    0.9911   11.5619 C   0  0  0  0  0  0  0  0  0  0  0  0
  -23.1316    1.2069   12.8687 C   0  0  0  0  0  0  0  0  0  0  0  0
  -24.5466    1.1290   12.8343 C   0  0  0  0  0  0  0  0  0  0  0  0
  -25.3029    0.9607   14.0057 C   0  0  0  0  0  0  0  0  0  0  0  0
  -24.6632    0.8389   15.2337 C   0  0  0  0  0  0  0  0  0  0  0  0
  -23.2847    0.9574   15.2527 C   0  0  0  0  0  0  0  0  0  0  0  0
  -22.5051    1.2098   14.1199 C   0  0  0  0  0  0  0  0  0  0  0  0
  -21.1504    1.3636   14.5064 N   0  0  0  0  0  0  0  0  0  0  0  0
  -19.8618    1.3845   13.6368 N   0  0  0  0  0  0  0  0  0  0  0  0
  -18.3243    1.5441   14.3914 S   0  0  0  0  0  0  0  0  0  0  0  0
  -18.3734    2.6835   15.2832 O   0  0  0  0  0  0  0  0  0  0  0  0
  -17.9295    0.2529   14.9002 O   0  0  0  0  0  0  0  0  0  0  0  0
  -17.2478    1.9278   13.1226 N   0  0  0  0  0  0  0  0  0  0  0  0
  -15.9474    2.5040   13.6336 C   0  0  0  0  0  0  0  0  0  0  0  0
  -15.0089    2.9346   12.4927 C   0  0  0  0  0  0  0  0  0  0  0  0
  -14.7009    1.8426   11.5594 N   0  0  0  0  0  0  0  0  0  0  0  0
  -15.9670    1.2787   11.0555 C   0  0  0  0  0  0  0  0  0  0  0  0
  -16.9425    0.8098   12.1639 C   0  0  0  0  0  0  0  0  0  0  0  0
  -21.1672    0.7766   15.8600 C   0  0  0  0  0  0  0  0  0  0  0  0
  -22.5275    0.7873   16.3848 O   0  0  0  0  0  0  0  0  0  0  0  0
  -22.0213   -1.2554   12.4523 N   0  0  0  0  0  0  0  0  0  0  0  0
  -21.5152   -2.3965   12.9778 C   0  0  0  0  0  0  0  0  0  0  0  0
  -20.1506   -2.3600   13.4570 C   0  0  0  0  0  0  0  0  0  0  0  0
  -19.7961   -3.0580   14.5442 C   0  0  0  0  0  0  0  0  0  0  0  0
  -20.7777   -3.9752   15.1701 C   0  0  0  0  0  0  0  0  0  0  0  0
  -20.5695   -4.5193   16.2466 O   0  0  0  0  0  0  0  0  0  0  0  0
  -21.9511   -4.1562   14.4765 N   0  0  0  0  0  0  0  0  0  0  0  0
  -22.3542   -3.3249   13.4643 C   0  0  0  0  0  0  0  0  0  0  0  0
  -21.8083    1.9035   11.3302 H   0  0  0  0  0  0  0  0  0  0  0  0
  -23.0421    0.7780   10.7249 H   0  0  0  0  0  0  0  0  0  0  0  0
  -25.0707    1.1427   11.8788 H   0  0  0  0  0  0  0  0  0  0  0  0
  -26.3864    0.8871   13.9476 H   0  0  0  0  0  0  0  0  0  0  0  0
  -25.2178    0.6600   16.1480 H   0  0  0  0  0  0  0  0  0  0  0  0
  -19.9209    2.1060   12.9153 H   0  0  0  0  0  0  0  0  0  0  0  0
  -15.4470    1.7642   14.2706 H   0  0  0  0  0  0  0  0  0  0  0  0
  -16.1702    3.3908   14.2282 H   0  0  0  0  0  0  0  0  0  0  0  0
  -14.0720    3.3125   12.9152 H   0  0  0  0  0  0  0  0  0  0  0  0
  -15.4610    3.7647   11.9359 H   0  0  0  0  0  0  0  0  0  0  0  0
  -14.1940    1.1116   12.0592 H   0  0  0  0  0  0  0  0  0  0  0  0
  -15.7343    0.4292   10.4037 H   0  0  0  0  0  0  0  0  0  0  0  0
  -16.4636    2.0290   10.4275 H   0  0  0  0  0  0  0  0  0  0  0  0
  -16.4968   -0.0338   12.7043 H   0  0  0  0  0  0  0  0  0  0  0  0
  -17.8689    0.4745   11.6940 H   0  0  0  0  0  0  0  0  0  0  0  0
  -20.5409    1.3570   16.5434 H   0  0  0  0  0  0  0  0  0  0  0  0
  -20.8328   -0.2654   15.8318 H   0  0  0  0  0  0  0  0  0  0  0  0
  -23.0034   -1.0406   12.5651 H   0  0  0  0  0  0  0  0  0  0  0  0
  -19.4346   -1.6821   13.0041 H   0  0  0  0  0  0  0  0  0  0  0  0
  -18.8185   -2.9628   14.9957 H   0  0  0  0  0  0  0  0  0  0  0  0
  -22.5973   -4.8138   14.8900 H   0  0  0  0  0  0  0  0  0  0  0  0
  -23.4051   -3.3771   13.2032 H   0  0  0  0  0  0  0  0  0  0  0  0
  1  2  2  0
  2  3  1  0
  3  4  1  0
  4  5  2  0
  5  6  1  0
  6  7  2  0
  7  8  1  0
  8  9  2  0
  9 10  1  0
 10 11  1  0
 11 12  1  0
 12 13  2  0
 12 14  2  0
 12 15  1  0
 15 16  1  0
 16 17  1  0
 17 18  1  0
 18 19  1  0
 19 20  1  0
 10 21  1  0
 21 22  1  0
  2 23  1  0
 23 24  1  0
 24 25  1  0
 25 26  2  0
 26 27  1  0
 27 28  2  0
 27 29  1  0
 29 30  1  0
  9  4  1  0
 20 15  1  0
 30 24  2  0
 22  8  1  0
  3 31  1  0
  3 32  1  0
  5 33  1  0
  6 34  1  0
  7 35  1  0
 11 36  1  0
 16 37  1  0
 16 38  1  0
 17 39  1  0
 17 40  1  0
 18 41  1  0
 19 42  1  0
 19 43  1  0
 20 44  1  0
 20 45  1  0
 21 46  1  0
 21 47  1  0
 23 48  1  0
 25 49  1  0
 26 50  1  0
 29 51  1  0
 30 52  1  0
M  END
>  <Energy>  (167) 
24.722187825799111

>  <compound_id>  (167) 
3962

>  <target_id>  (167) 
1

>  <reference_id>  (167) 
100

>  <inspiration_ids>  (167) 
[137, 100]

>  <energy_score>  (167) 
-80.22089039501797

>  <distance_score>  (167) 
4.958160614596975

>  <path>  (167) 
/opt/xchem-fragalysis-2/maxwin/BulkDock/SCRATCH/505735/C3962-P100/C3962-P100.minimised.mol

>  <scratch_subdir>  (167) 
/opt/xchem-fragalysis-2/maxwin/BulkDock/SCRATCH/505735/C3962-P100

>  <fragmenstein_runtime>  (167) 
6.935881853103638

>  <fragmenstein_outcome>  (167) 
too moved

>  <fragmenstein_mode>  (167) 
expansion

>  <fragmenstein_error>  (167) 


$$$$
C3966-P137
     RDKit          3D

 69 73  0  0  0  0  0  0  0  0999 V2000
  -29.3123   -4.3541   12.1165 C   0  0  0  0  0  0  0  0  0  0  0  0
  -28.0378   -3.7076   12.4293 N   0  0  0  0  0  0  0  0  0  0  0  0
  -27.2352   -3.6565   11.2053 C   0  0  0  0  0  0  0  0  0  0  0  0
  -28.0822   -2.2894   13.4103 S   0  0  0  0  0  0  0  0  0  0  0  0
  -29.1350   -1.4918   12.8194 O   0  0  0  0  0  0  0  0  0  0  0  0
  -26.6099   -1.8661   13.4788 N   0  0  0  0  0  0  0  0  0  0  0  0
  -26.2443   -0.4569   13.6165 C   0  0  0  0  0  0  0  0  0  0  0  0
  -24.7281   -0.3160   13.4559 C   0  0  0  0  0  0  0  0  0  0  0  0
  -23.8909   -1.2173   14.3778 C   0  0  0  0  0  0  0  0  0  0  0  0
  -23.7991   -0.7375   15.8215 C   0  0  0  0  0  0  0  0  0  0  0  0
  -23.4553   -1.7044   16.8626 N   0  0  0  0  0  0  0  0  0  0  0  0
  -23.8868   -1.5357   18.1638 C   0  0  0  0  0  0  0  0  0  0  0  0
  -23.0225   -2.2637   18.9404 C   0  0  0  0  0  0  0  0  0  0  0  0
  -22.0843   -2.8806   18.1639 N   0  0  0  0  0  0  0  0  0  0  0  0
  -22.4139   -2.6112   16.9101 C   0  0  0  0  0  0  0  0  0  0  0  0
  -21.5839   -3.1382   15.7012 C   0  0  0  0  0  0  0  0  0  0  0  0
  -22.0978   -3.5225   14.5273 N   0  0  0  0  0  0  0  0  0  0  0  0
  -21.0333   -3.3367   13.6453 O   0  0  0  0  0  0  0  0  0  0  0  0
  -20.0428   -2.7603   14.3914 C   0  0  0  0  0  0  0  0  0  0  0  0
  -19.1361   -1.6492   13.8090 C   0  0  0  0  0  0  0  0  0  0  0  0
  -19.6461   -0.2202   14.1584 C   0  0  0  0  0  0  0  0  0  0  0  0
  -18.1578    0.1919   14.1774 C   0  0  0  0  0  0  0  0  0  0  0  0
  -17.8615   -1.2677   14.5926 C   0  0  0  0  0  0  0  0  0  0  0  0
  -20.2410   -2.9023   15.6787 N   0  0  0  0  0  0  0  0  0  0  0  0
  -28.6177   -2.7955   15.0369 C   0  0  0  0  0  0  0  0  0  0  0  0
  -27.5874   -3.6149   15.8067 C   0  0  0  0  0  0  0  0  0  0  0  0
  -27.0168   -2.6289   16.8050 C   0  0  0  0  0  0  0  0  0  0  0  0
  -28.1904   -1.8322   17.1665 N   0  0  0  0  0  0  0  0  0  0  0  0
  -27.8328   -0.6316   17.9212 C   0  0  0  0  0  0  0  0  0  0  0  0
  -29.0556    0.0445   18.4213 C   0  0  0  0  0  0  0  0  0  0  0  0
  -29.9642   -0.4366   19.3391 C   0  0  0  0  0  0  0  0  0  0  0  0
  -30.9431    0.4756   19.5532 O   0  0  0  0  0  0  0  0  0  0  0  0
  -30.7009    1.5959   18.7745 N   0  0  0  0  0  0  0  0  0  0  0  0
  -29.5786    1.3187   18.1097 C   0  0  0  0  0  0  0  0  0  0  0  0
  -28.8085    2.5284   16.8903 Br  0  0  0  0  0  0  0  0  0  0  0  0
  -28.8854   -1.5656   15.8985 C   0  0  0  0  0  0  0  0  0  0  0  0
  -29.1561   -5.3406   11.6656 H   0  0  0  0  0  0  0  0  0  0  0  0
  -29.8993   -4.5245   13.0236 H   0  0  0  0  0  0  0  0  0  0  0  0
  -29.9154   -3.7491   11.4307 H   0  0  0  0  0  0  0  0  0  0  0  0
  -27.6385   -2.9262   10.4953 H   0  0  0  0  0  0  0  0  0  0  0  0
  -27.1943   -4.6350   10.7129 H   0  0  0  0  0  0  0  0  0  0  0  0
  -26.1957   -3.3888   11.4201 H   0  0  0  0  0  0  0  0  0  0  0  0
  -26.7423    0.1459   12.8488 H   0  0  0  0  0  0  0  0  0  0  0  0
  -26.5488   -0.0743   14.5943 H   0  0  0  0  0  0  0  0  0  0  0  0
  -24.4686   -0.5682   12.4187 H   0  0  0  0  0  0  0  0  0  0  0  0
  -24.4422    0.7327   13.6014 H   0  0  0  0  0  0  0  0  0  0  0  0
  -22.8789   -1.2167   13.9593 H   0  0  0  0  0  0  0  0  0  0  0  0
  -24.2675   -2.2433   14.3390 H   0  0  0  0  0  0  0  0  0  0  0  0
  -23.0464    0.0582   15.8953 H   0  0  0  0  0  0  0  0  0  0  0  0
  -24.7538   -0.2913   16.1221 H   0  0  0  0  0  0  0  0  0  0  0  0
  -24.6965   -0.8703   18.4247 H   0  0  0  0  0  0  0  0  0  0  0  0
  -23.0080   -2.3439   20.0201 H   0  0  0  0  0  0  0  0  0  0  0  0
  -18.9968   -1.7587   12.7280 H   0  0  0  0  0  0  0  0  0  0  0  0
  -20.2586    0.2663   13.3945 H   0  0  0  0  0  0  0  0  0  0  0  0
  -20.1426   -0.1159   15.1308 H   0  0  0  0  0  0  0  0  0  0  0  0
  -17.8767    0.9726   14.8841 H   0  0  0  0  0  0  0  0  0  0  0  0
  -17.7602    0.4586   13.1904 H   0  0  0  0  0  0  0  0  0  0  0  0
  -17.9218   -1.4508   15.6688 H   0  0  0  0  0  0  0  0  0  0  0  0
  -16.9156   -1.6655   14.2257 H   0  0  0  0  0  0  0  0  0  0  0  0
  -29.5387   -3.3722   14.9063 H   0  0  0  0  0  0  0  0  0  0  0  0
  -28.0984   -4.4243   16.3442 H   0  0  0  0  0  0  0  0  0  0  0  0
  -26.8133   -4.0718   15.1836 H   0  0  0  0  0  0  0  0  0  0  0  0
  -26.5841   -3.1404   17.6701 H   0  0  0  0  0  0  0  0  0  0  0  0
  -26.2495   -2.0171   16.3293 H   0  0  0  0  0  0  0  0  0  0  0  0
  -27.2327   -0.9186   18.7946 H   0  0  0  0  0  0  0  0  0  0  0  0
  -27.2082    0.0414   17.3232 H   0  0  0  0  0  0  0  0  0  0  0  0
  -30.0531   -1.3585   19.8953 H   0  0  0  0  0  0  0  0  0  0  0  0
  -29.9613   -1.4546   16.0748 H   0  0  0  0  0  0  0  0  0  0  0  0
  -28.5364   -0.6389   15.4331 H   0  0  0  0  0  0  0  0  0  0  0  0
  1  2  1  0
  2  3  1  0
  2  4  1  0
  4  5  2  0
  4  6  2  0
  6  7  1  0
  7  8  1  0
  8  9  1  0
  9 10  1  0
 10 11  1  0
 11 12  1  0
 12 13  2  0
 13 14  1  0
 14 15  2  0
 15 16  1  0
 16 17  2  0
 17 18  1  0
 18 19  1  0
 19 20  1  0
 20 21  1  0
 21 22  1  0
 22 23  1  0
 19 24  2  0
  4 25  1  0
 25 26  1  0
 26 27  1  0
 27 28  1  0
 28 29  1  0
 29 30  1  0
 30 31  2  0
 31 32  1  0
 32 33  1  0
 33 34  2  0
 34 35  1  0
 28 36  1  0
 15 11  1  0
 24 16  1  0
 36 25  1  0
 23 20  1  0
 34 30  1  0
  1 37  1  0
  1 38  1  0
  1 39  1  0
  3 40  1  0
  3 41  1  0
  3 42  1  0
  7 43  1  0
  7 44  1  0
  8 45  1  0
  8 46  1  0
  9 47  1  0
  9 48  1  0
 10 49  1  0
 10 50  1  0
 12 51  1  0
 13 52  1  0
 20 53  1  0
 21 54  1  0
 21 55  1  0
 22 56  1  0
 22 57  1  0
 23 58  1  0
 23 59  1  0
 25 60  1  0
 26 61  1  0
 26 62  1  0
 27 63  1  0
 27 64  1  0
 29 65  1  0
 29 66  1  0
 31 67  1  0
 36 68  1  0
 36 69  1  0
M  END
>  <Energy>  (168) 
-13.169080499863554

>  <compound_id>  (168) 
3966

>  <target_id>  (168) 
1

>  <reference_id>  (168) 
137

>  <inspiration_ids>  (168) 
[137, 174]

>  <energy_score>  (168) 
-64.5877719894481

>  <distance_score>  (168) 
1.595560058679211

>  <path>  (168) 
/opt/xchem-fragalysis-2/maxwin/BulkDock/SCRATCH/505735/C3966-P137/C3966-P137.minimised.mol

>  <scratch_subdir>  (168) 
/opt/xchem-fragalysis-2/maxwin/BulkDock/SCRATCH/505735/C3966-P137

>  <fragmenstein_runtime>  (168) 
4.8743531703948975

>  <fragmenstein_outcome>  (168) 
too moved

>  <fragmenstein_mode>  (168) 
expansion

>  <fragmenstein_error>  (168) 


$$$$
C3966-P174
     RDKit          3D

 69 73  0  0  0  0  0  0  0  0999 V2000
  -28.7882   -4.4102   12.1301 C   0  0  0  0  0  0  0  0  0  0  0  0
  -27.5394   -3.6919   12.3811 N   0  0  0  0  0  0  0  0  0  0  0  0
  -26.7339   -3.7229   11.1590 C   0  0  0  0  0  0  0  0  0  0  0  0
  -27.6374   -2.1925   13.2221 S   0  0  0  0  0  0  0  0  0  0  0  0
  -28.5855   -1.4201   12.4497 O   0  0  0  0  0  0  0  0  0  0  0  0
  -26.1664   -1.8090   13.4238 N   0  0  0  0  0  0  0  0  0  0  0  0
  -25.6993   -0.4745   13.0349 C   0  0  0  0  0  0  0  0  0  0  0  0
  -24.1933   -0.3696   13.3048 C   0  0  0  0  0  0  0  0  0  0  0  0
  -23.7797   -0.2853   14.7853 C   0  0  0  0  0  0  0  0  0  0  0  0
  -24.3387   -1.4138   15.6520 C   0  0  0  0  0  0  0  0  0  0  0  0
  -23.5799   -1.7024   16.8525 N   0  0  0  0  0  0  0  0  0  0  0  0
  -23.8872   -1.2574   18.1102 C   0  0  0  0  0  0  0  0  0  0  0  0
  -22.8382   -1.6655   18.8959 C   0  0  0  0  0  0  0  0  0  0  0  0
  -21.9044   -2.3347   18.1506 N   0  0  0  0  0  0  0  0  0  0  0  0
  -22.3873   -2.3826   16.9224 C   0  0  0  0  0  0  0  0  0  0  0  0
  -21.6196   -2.9666   15.6920 C   0  0  0  0  0  0  0  0  0  0  0  0
  -22.1947   -3.2777   14.5215 N   0  0  0  0  0  0  0  0  0  0  0  0
  -21.1339   -3.1818   13.6216 O   0  0  0  0  0  0  0  0  0  0  0  0
  -20.0800   -2.7096   14.3552 C   0  0  0  0  0  0  0  0  0  0  0  0
  -19.1139   -1.6511   13.7678 C   0  0  0  0  0  0  0  0  0  0  0  0
  -19.5535   -0.1956   14.1046 C   0  0  0  0  0  0  0  0  0  0  0  0
  -18.0470    0.1451   14.1106 C   0  0  0  0  0  0  0  0  0  0  0  0
  -17.8211   -1.3216   14.5444 C   0  0  0  0  0  0  0  0  0  0  0  0
  -20.2611   -2.8659   15.6438 N   0  0  0  0  0  0  0  0  0  0  0  0
  -28.3526   -2.5154   14.8158 C   0  0  0  0  0  0  0  0  0  0  0  0
  -27.5901   -3.5073   15.6887 C   0  0  0  0  0  0  0  0  0  0  0  0
  -27.5096   -2.8498   17.0601 C   0  0  0  0  0  0  0  0  0  0  0  0
  -28.4734   -1.7469   17.0111 N   0  0  0  0  0  0  0  0  0  0  0  0
  -28.1935   -0.7343   18.0312 C   0  0  0  0  0  0  0  0  0  0  0  0
  -29.2935    0.2605   18.0818 C   0  0  0  0  0  0  0  0  0  0  0  0
  -30.5857    0.0614   18.5164 C   0  0  0  0  0  0  0  0  0  0  0  0
  -31.2948    1.2126   18.4230 O   0  0  0  0  0  0  0  0  0  0  0  0
  -30.4780    2.2121   17.9189 N   0  0  0  0  0  0  0  0  0  0  0  0
  -29.2965    1.6260   17.7213 C   0  0  0  0  0  0  0  0  0  0  0  0
  -27.8168    2.5565   17.0220 Br  0  0  0  0  0  0  0  0  0  0  0  0
  -28.4168   -1.2422   15.6358 C   0  0  0  0  0  0  0  0  0  0  0  0
  -28.5968   -5.4193   11.7480 H   0  0  0  0  0  0  0  0  0  0  0  0
  -29.3570   -4.5398   13.0556 H   0  0  0  0  0  0  0  0  0  0  0  0
  -29.4224   -3.8797   11.4116 H   0  0  0  0  0  0  0  0  0  0  0  0
  -27.1752   -3.0982   10.3747 H   0  0  0  0  0  0  0  0  0  0  0  0
  -26.6306   -4.7442   10.7750 H   0  0  0  0  0  0  0  0  0  0  0  0
  -25.7152   -3.3678   11.3445 H   0  0  0  0  0  0  0  0  0  0  0  0
  -25.8798   -0.3213   11.9647 H   0  0  0  0  0  0  0  0  0  0  0  0
  -26.2379    0.3031   13.5869 H   0  0  0  0  0  0  0  0  0  0  0  0
  -23.6751   -1.2179   12.8390 H   0  0  0  0  0  0  0  0  0  0  0  0
  -23.8174    0.5321   12.8052 H   0  0  0  0  0  0  0  0  0  0  0  0
  -24.1108    0.6759   15.1989 H   0  0  0  0  0  0  0  0  0  0  0  0
  -22.6846   -0.2675   14.8288 H   0  0  0  0  0  0  0  0  0  0  0  0
  -25.3441   -1.1339   15.9758 H   0  0  0  0  0  0  0  0  0  0  0  0
  -24.4211   -2.3621   15.1172 H   0  0  0  0  0  0  0  0  0  0  0  0
  -24.7759   -0.6850   18.3307 H   0  0  0  0  0  0  0  0  0  0  0  0
  -22.6972   -1.4953   19.9553 H   0  0  0  0  0  0  0  0  0  0  0  0
  -18.9837   -1.7746   12.6871 H   0  0  0  0  0  0  0  0  0  0  0  0
  -20.1472    0.3116   13.3393 H   0  0  0  0  0  0  0  0  0  0  0  0
  -20.0373   -0.0578   15.0792 H   0  0  0  0  0  0  0  0  0  0  0  0
  -17.7244    0.9197   14.8066 H   0  0  0  0  0  0  0  0  0  0  0  0
  -17.6417    0.3792   13.1185 H   0  0  0  0  0  0  0  0  0  0  0  0
  -17.8901   -1.4814   15.6236 H   0  0  0  0  0  0  0  0  0  0  0  0
  -16.8953   -1.7698   14.1832 H   0  0  0  0  0  0  0  0  0  0  0  0
  -29.3704   -2.8860   14.6428 H   0  0  0  0  0  0  0  0  0  0  0  0
  -28.1502   -4.4481   15.7464 H   0  0  0  0  0  0  0  0  0  0  0  0
  -26.5909   -3.7495   15.3147 H   0  0  0  0  0  0  0  0  0  0  0  0
  -27.7655   -3.5605   17.8532 H   0  0  0  0  0  0  0  0  0  0  0  0
  -26.4912   -2.5016   17.2473 H   0  0  0  0  0  0  0  0  0  0  0  0
  -28.1330   -1.2175   19.0155 H   0  0  0  0  0  0  0  0  0  0  0  0
  -27.2228   -0.2557   17.8610 H   0  0  0  0  0  0  0  0  0  0  0  0
  -31.1276   -0.7925   18.8962 H   0  0  0  0  0  0  0  0  0  0  0  0
  -29.3064   -0.6582   15.3761 H   0  0  0  0  0  0  0  0  0  0  0  0
  -27.5404   -0.6032   15.4860 H   0  0  0  0  0  0  0  0  0  0  0  0
  1  2  1  0
  2  3  1  0
  2  4  1  0
  4  5  2  0
  4  6  2  0
  6  7  1  0
  7  8  1  0
  8  9  1  0
  9 10  1  0
 10 11  1  0
 11 12  1  0
 12 13  2  0
 13 14  1  0
 14 15  2  0
 15 16  1  0
 16 17  2  0
 17 18  1  0
 18 19  1  0
 19 20  1  0
 20 21  1  0
 21 22  1  0
 22 23  1  0
 19 24  2  0
  4 25  1  0
 25 26  1  0
 26 27  1  0
 27 28  1  0
 28 29  1  0
 29 30  1  0
 30 31  2  0
 31 32  1  0
 32 33  1  0
 33 34  2  0
 34 35  1  0
 28 36  1  0
 15 11  1  0
 24 16  1  0
 36 25  1  0
 23 20  1  0
 34 30  1  0
  1 37  1  0
  1 38  1  0
  1 39  1  0
  3 40  1  0
  3 41  1  0
  3 42  1  0
  7 43  1  0
  7 44  1  0
  8 45  1  0
  8 46  1  0
  9 47  1  0
  9 48  1  0
 10 49  1  0
 10 50  1  0
 12 51  1  0
 13 52  1  0
 20 53  1  0
 21 54  1  0
 21 55  1  0
 22 56  1  0
 22 57  1  0
 23 58  1  0
 23 59  1  0
 25 60  1  0
 26 61  1  0
 26 62  1  0
 27 63  1  0
 27 64  1  0
 29 65  1  0
 29 66  1  0
 31 67  1  0
 36 68  1  0
 36 69  1  0
M  END
>  <Energy>  (169) 
-32.169180301767561

>  <compound_id>  (169) 
3966

>  <target_id>  (169) 
1

>  <reference_id>  (169) 
174

>  <inspiration_ids>  (169) 
[137, 174]

>  <energy_score>  (169) 
-83.58787179135277

>  <distance_score>  (169) 
1.8755135303890504

>  <path>  (169) 
/opt/xchem-fragalysis-2/maxwin/BulkDock/SCRATCH/505735/C3966-P174/C3966-P174.minimised.mol

>  <scratch_subdir>  (169) 
/opt/xchem-fragalysis-2/maxwin/BulkDock/SCRATCH/505735/C3966-P174

>  <fragmenstein_runtime>  (169) 
4.776183366775513

>  <fragmenstein_outcome>  (169) 
too moved

>  <fragmenstein_mode>  (169) 
expansion

>  <fragmenstein_error>  (169) 


$$$$
C3967-P137
     RDKit          3D

 65 67  0  0  0  0  0  0  0  0999 V2000
  -29.1705    1.3562   14.5894 C   0  0  0  0  0  0  0  0  0  0  0  0
  -28.2010    0.3951   14.0442 N   0  0  0  0  0  0  0  0  0  0  0  0
  -28.0512   -0.7257   14.8958 C   0  0  0  0  0  0  0  0  0  0  0  0
  -27.0832   -0.7205   15.9293 C   0  0  0  0  0  0  0  0  0  0  0  0
  -26.0238    0.3519   16.0482 C   0  0  0  0  0  0  0  0  0  0  0  0
  -24.8446    0.0672   15.1149 C   0  0  0  0  0  0  0  0  0  0  0  0
  -24.0676   -1.1913   15.4703 C   0  0  0  0  0  0  0  0  0  0  0  0
  -23.6716   -1.0884   16.8720 N   0  0  0  0  0  0  0  0  0  0  0  0
  -22.4176   -1.8154   17.3411 S   0  0  0  0  0  0  0  0  0  0  0  0
  -22.0028   -3.1040   16.8299 O   0  0  0  0  0  0  0  0  0  0  0  0
  -21.0406   -0.7048   17.2197 C   0  0  0  0  0  0  0  0  0  0  0  0
  -21.4134    0.7758   17.2891 C   0  0  0  0  0  0  0  0  0  0  0  0
  -21.2178    1.2811   15.8676 C   0  0  0  0  0  0  0  0  0  0  0  0
  -20.0786    0.5009   15.3838 N   0  0  0  0  0  0  0  0  0  0  0  0
  -19.8873    0.5370   13.9338 C   0  0  0  0  0  0  0  0  0  0  0  0
  -19.3793    1.8687   13.5218 C   0  0  0  0  0  0  0  0  0  0  0  0
  -20.0829    2.8905   12.9227 C   0  0  0  0  0  0  0  0  0  0  0  0
  -19.2671    3.9478   12.6905 O   0  0  0  0  0  0  0  0  0  0  0  0
  -17.9900    3.6428   13.1302 N   0  0  0  0  0  0  0  0  0  0  0  0
  -18.0757    2.4028   13.6126 C   0  0  0  0  0  0  0  0  0  0  0  0
  -16.5948    1.5055   14.3456 Br  0  0  0  0  0  0  0  0  0  0  0  0
  -20.3461   -0.8676   15.8658 C   0  0  0  0  0  0  0  0  0  0  0  0
  -22.7322   -2.1113   19.0037 N   0  0  0  0  0  0  0  0  0  0  0  0
  -23.0592   -0.9834   19.8722 C   0  0  0  0  0  0  0  0  0  0  0  0
  -23.6325   -3.2200   19.3204 C   0  0  0  0  0  0  0  0  0  0  0  0
  -27.0264   -1.7858   16.8500 C   0  0  0  0  0  0  0  0  0  0  0  0
  -27.8966   -2.8618   16.7553 C   0  0  0  0  0  0  0  0  0  0  0  0
  -28.8413   -2.8846   15.7388 C   0  0  0  0  0  0  0  0  0  0  0  0
  -28.9254   -1.8257   14.8197 C   0  0  0  0  0  0  0  0  0  0  0  0
  -30.1161   -2.0189   13.5045 S   0  0  0  0  0  0  0  0  0  0  0  0
  -29.3432   -1.4803   12.0052 C   0  0  0  0  0  0  0  0  0  0  0  0
  -31.2434   -1.1522   13.7957 O   0  0  0  0  0  0  0  0  0  0  0  0
  -30.3284   -3.4497   13.3432 O   0  0  0  0  0  0  0  0  0  0  0  0
  -29.3190    2.1567   13.8581 H   0  0  0  0  0  0  0  0  0  0  0  0
  -30.1442    0.9019   14.7881 H   0  0  0  0  0  0  0  0  0  0  0  0
  -28.8001    1.8114   15.5141 H   0  0  0  0  0  0  0  0  0  0  0  0
  -27.3117    0.8739   13.9188 H   0  0  0  0  0  0  0  0  0  0  0  0
  -25.7024    0.4555   17.0920 H   0  0  0  0  0  0  0  0  0  0  0  0
  -26.4506    1.3317   15.8061 H   0  0  0  0  0  0  0  0  0  0  0  0
  -24.1871    0.9412   15.1505 H   0  0  0  0  0  0  0  0  0  0  0  0
  -25.1858   -0.0134   14.0756 H   0  0  0  0  0  0  0  0  0  0  0  0
  -24.6565   -2.0991   15.3073 H   0  0  0  0  0  0  0  0  0  0  0  0
  -23.1986   -1.2516   14.8073 H   0  0  0  0  0  0  0  0  0  0  0  0
  -20.3665   -0.9737   18.0386 H   0  0  0  0  0  0  0  0  0  0  0  0
  -20.7140    1.2899   17.9587 H   0  0  0  0  0  0  0  0  0  0  0  0
  -22.4170    0.9940   17.6620 H   0  0  0  0  0  0  0  0  0  0  0  0
  -22.1049    1.0947   15.2606 H   0  0  0  0  0  0  0  0  0  0  0  0
  -21.0124    2.3528   15.8557 H   0  0  0  0  0  0  0  0  0  0  0  0
  -20.8170    0.2965   13.4017 H   0  0  0  0  0  0  0  0  0  0  0  0
  -19.1536   -0.2228   13.6354 H   0  0  0  0  0  0  0  0  0  0  0  0
  -21.1092    3.0214   12.6130 H   0  0  0  0  0  0  0  0  0  0  0  0
  -20.9647   -1.4130   15.1444 H   0  0  0  0  0  0  0  0  0  0  0  0
  -19.4083   -1.4242   15.9717 H   0  0  0  0  0  0  0  0  0  0  0  0
  -22.2996   -0.2004   19.7934 H   0  0  0  0  0  0  0  0  0  0  0  0
  -23.0721   -1.2838   20.9262 H   0  0  0  0  0  0  0  0  0  0  0  0
  -24.0328   -0.5458   19.6269 H   0  0  0  0  0  0  0  0  0  0  0  0
  -23.6096   -3.4570   20.3901 H   0  0  0  0  0  0  0  0  0  0  0  0
  -23.3246   -4.1334   18.8014 H   0  0  0  0  0  0  0  0  0  0  0  0
  -24.6654   -2.9982   19.0340 H   0  0  0  0  0  0  0  0  0  0  0  0
  -26.2798   -1.7812   17.6428 H   0  0  0  0  0  0  0  0  0  0  0  0
  -27.8357   -3.6815   17.4666 H   0  0  0  0  0  0  0  0  0  0  0  0
  -29.5161   -3.7364   15.6669 H   0  0  0  0  0  0  0  0  0  0  0  0
  -28.3404   -1.9067   11.9422 H   0  0  0  0  0  0  0  0  0  0  0  0
  -29.3209   -0.3926   11.9561 H   0  0  0  0  0  0  0  0  0  0  0  0
  -29.9450   -1.8516   11.1714 H   0  0  0  0  0  0  0  0  0  0  0  0
  1  2  1  0
  2  3  1  0
  3  4  2  0
  4  5  1  0
  5  6  1  0
  6  7  1  0
  7  8  1  0
  8  9  2  0
  9 10  2  0
  9 11  1  0
 11 12  1  0
 12 13  1  0
 13 14  1  0
 14 15  1  0
 15 16  1  0
 16 17  2  0
 17 18  1  0
 18 19  1  0
 19 20  2  0
 20 21  1  0
 14 22  1  0
  9 23  1  0
 23 24  1  0
 23 25  1  0
  4 26  1  0
 26 27  2  0
 27 28  1  0
 28 29  2  0
 29 30  1  0
 30 31  1  0
 30 32  2  0
 30 33  2  0
 29  3  1  0
 22 11  1  0
 20 16  1  0
  1 34  1  0
  1 35  1  0
  1 36  1  0
  2 37  1  0
  5 38  1  0
  5 39  1  0
  6 40  1  0
  6 41  1  0
  7 42  1  0
  7 43  1  0
 11 44  1  0
 12 45  1  0
 12 46  1  0
 13 47  1  0
 13 48  1  0
 15 49  1  0
 15 50  1  0
 17 51  1  0
 22 52  1  0
 22 53  1  0
 24 54  1  0
 24 55  1  0
 24 56  1  0
 25 57  1  0
 25 58  1  0
 25 59  1  0
 26 60  1  0
 27 61  1  0
 28 62  1  0
 31 63  1  0
 31 64  1  0
 31 65  1  0
M  END
>  <Energy>  (170) 
-33.021394024457308

>  <compound_id>  (170) 
3967

>  <target_id>  (170) 
1

>  <reference_id>  (170) 
137

>  <inspiration_ids>  (170) 
[137, 176]

>  <energy_score>  (170) 
-99.50759972195885

>  <distance_score>  (170) 
1.4674281705514223

>  <path>  (170) 
/opt/xchem-fragalysis-2/maxwin/BulkDock/SCRATCH/505735/C3967-P137/C3967-P137.minimised.mol

>  <scratch_subdir>  (170) 
/opt/xchem-fragalysis-2/maxwin/BulkDock/SCRATCH/505735/C3967-P137

>  <fragmenstein_runtime>  (170) 
7.368462800979614

>  <fragmenstein_outcome>  (170) 
too moved

>  <fragmenstein_mode>  (170) 
expansion

>  <fragmenstein_error>  (170) 


$$$$
C3967-P176
     RDKit          3D

 65 67  0  0  0  0  0  0  0  0999 V2000
  -28.9332    1.3004   13.7354 C   0  0  0  0  0  0  0  0  0  0  0  0
  -28.0235    0.1833   13.4449 N   0  0  0  0  0  0  0  0  0  0  0  0
  -28.0100   -0.7594   14.5006 C   0  0  0  0  0  0  0  0  0  0  0  0
  -27.1037   -0.6204   15.5775 C   0  0  0  0  0  0  0  0  0  0  0  0
  -25.9638    0.3769   15.5648 C   0  0  0  0  0  0  0  0  0  0  0  0
  -24.7587   -0.1842   14.8002 C   0  0  0  0  0  0  0  0  0  0  0  0
  -24.1050   -1.3646   15.4989 C   0  0  0  0  0  0  0  0  0  0  0  0
  -23.7352   -0.9169   16.8412 N   0  0  0  0  0  0  0  0  0  0  0  0
  -22.5521   -1.5839   17.5318 S   0  0  0  0  0  0  0  0  0  0  0  0
  -22.0694   -2.9000   17.1774 O   0  0  0  0  0  0  0  0  0  0  0  0
  -21.1916   -0.4481   17.4580 C   0  0  0  0  0  0  0  0  0  0  0  0
  -21.5800    0.9890   17.8008 C   0  0  0  0  0  0  0  0  0  0  0  0
  -21.5571    1.7203   16.4742 C   0  0  0  0  0  0  0  0  0  0  0  0
  -20.4725    1.0668   15.7359 N   0  0  0  0  0  0  0  0  0  0  0  0
  -20.5420    1.3943   14.3123 C   0  0  0  0  0  0  0  0  0  0  0  0
  -19.2721    1.0288   13.6427 C   0  0  0  0  0  0  0  0  0  0  0  0
  -18.0154    1.5426   13.8797 C   0  0  0  0  0  0  0  0  0  0  0  0
  -17.1152    0.9894   13.0320 O   0  0  0  0  0  0  0  0  0  0  0  0
  -17.7660    0.0962   12.1982 N   0  0  0  0  0  0  0  0  0  0  0  0
  -19.0413    0.1244   12.5844 C   0  0  0  0  0  0  0  0  0  0  0  0
  -20.3740   -0.9232   11.7657 Br  0  0  0  0  0  0  0  0  0  0  0  0
  -20.6402   -0.3729   16.0281 C   0  0  0  0  0  0  0  0  0  0  0  0
  -23.1003   -1.8009   19.1519 N   0  0  0  0  0  0  0  0  0  0  0  0
  -22.6175   -0.9262   20.2194 C   0  0  0  0  0  0  0  0  0  0  0  0
  -24.5285   -2.0511   19.3626 C   0  0  0  0  0  0  0  0  0  0  0  0
  -27.1871   -1.4941   16.6780 C   0  0  0  0  0  0  0  0  0  0  0  0
  -28.1219   -2.5178   16.7220 C   0  0  0  0  0  0  0  0  0  0  0  0
  -29.0058   -2.6721   15.6652 C   0  0  0  0  0  0  0  0  0  0  0  0
  -28.9606   -1.7963   14.5682 C   0  0  0  0  0  0  0  0  0  0  0  0
  -30.0902   -2.1485   13.2310 S   0  0  0  0  0  0  0  0  0  0  0  0
  -29.1812   -1.9902   11.7194 C   0  0  0  0  0  0  0  0  0  0  0  0
  -31.1414   -1.1482   13.2614 O   0  0  0  0  0  0  0  0  0  0  0  0
  -30.4338   -3.5588   13.3360 O   0  0  0  0  0  0  0  0  0  0  0  0
  -28.5636    1.9051   14.5704 H   0  0  0  0  0  0  0  0  0  0  0  0
  -28.9885    1.9457   12.8533 H   0  0  0  0  0  0  0  0  0  0  0  0
  -29.9473    0.9660   13.9680 H   0  0  0  0  0  0  0  0  0  0  0  0
  -27.0913    0.5600   13.2864 H   0  0  0  0  0  0  0  0  0  0  0  0
  -26.2866    1.3125   15.0949 H   0  0  0  0  0  0  0  0  0  0  0  0
  -25.7043    0.6708   16.5890 H   0  0  0  0  0  0  0  0  0  0  0  0
  -24.0275    0.6212   14.6682 H   0  0  0  0  0  0  0  0  0  0  0  0
  -25.0549   -0.4924   13.7899 H   0  0  0  0  0  0  0  0  0  0  0  0
  -24.7655   -2.2347   15.5562 H   0  0  0  0  0  0  0  0  0  0  0  0
  -23.2347   -1.6725   14.9113 H   0  0  0  0  0  0  0  0  0  0  0  0
  -20.4332   -0.8281   18.1497 H   0  0  0  0  0  0  0  0  0  0  0  0
  -20.8289    1.4205   18.4732 H   0  0  0  0  0  0  0  0  0  0  0  0
  -22.5524    1.1055   18.2838 H   0  0  0  0  0  0  0  0  0  0  0  0
  -22.5211    1.6164   15.9669 H   0  0  0  0  0  0  0  0  0  0  0  0
  -21.3598    2.7882   16.6153 H   0  0  0  0  0  0  0  0  0  0  0  0
  -20.6700    2.4771   14.1966 H   0  0  0  0  0  0  0  0  0  0  0  0
  -21.4152    0.9352   13.8355 H   0  0  0  0  0  0  0  0  0  0  0  0
  -17.6179    2.2708   14.5711 H   0  0  0  0  0  0  0  0  0  0  0  0
  -21.3016   -0.8443   15.2977 H   0  0  0  0  0  0  0  0  0  0  0  0
  -19.6780   -0.8922   15.9579 H   0  0  0  0  0  0  0  0  0  0  0  0
  -23.0522    0.0753   20.1536 H   0  0  0  0  0  0  0  0  0  0  0  0
  -21.5272   -0.8426   20.1948 H   0  0  0  0  0  0  0  0  0  0  0  0
  -22.8639   -1.3288   21.2075 H   0  0  0  0  0  0  0  0  0  0  0  0
  -24.7337   -2.4268   20.3693 H   0  0  0  0  0  0  0  0  0  0  0  0
  -24.8925   -2.8160   18.6685 H   0  0  0  0  0  0  0  0  0  0  0  0
  -25.1145   -1.1359   19.2311 H   0  0  0  0  0  0  0  0  0  0  0  0
  -26.4986   -1.3785   17.5080 H   0  0  0  0  0  0  0  0  0  0  0  0
  -28.1623   -3.1908   17.5748 H   0  0  0  0  0  0  0  0  0  0  0  0
  -29.7364   -3.4788   15.7027 H   0  0  0  0  0  0  0  0  0  0  0  0
  -28.2247   -2.5069   11.8176 H   0  0  0  0  0  0  0  0  0  0  0  0
  -29.0453   -0.9406   11.4629 H   0  0  0  0  0  0  0  0  0  0  0  0
  -29.7682   -2.4663   10.9294 H   0  0  0  0  0  0  0  0  0  0  0  0
  1  2  1  0
  2  3  1  0
  3  4  2  0
  4  5  1  0
  5  6  1  0
  6  7  1  0
  7  8  1  0
  8  9  2  0
  9 10  2  0
  9 11  1  0
 11 12  1  0
 12 13  1  0
 13 14  1  0
 14 15  1  0
 15 16  1  0
 16 17  2  0
 17 18  1  0
 18 19  1  0
 19 20  2  0
 20 21  1  0
 14 22  1  0
  9 23  1  0
 23 24  1  0
 23 25  1  0
  4 26  1  0
 26 27  2  0
 27 28  1  0
 28 29  2  0
 29 30  1  0
 30 31  1  0
 30 32  2  0
 30 33  2  0
 29  3  1  0
 22 11  1  0
 20 16  1  0
  1 34  1  0
  1 35  1  0
  1 36  1  0
  2 37  1  0
  5 38  1  0
  5 39  1  0
  6 40  1  0
  6 41  1  0
  7 42  1  0
  7 43  1  0
 11 44  1  0
 12 45  1  0
 12 46  1  0
 13 47  1  0
 13 48  1  0
 15 49  1  0
 15 50  1  0
 17 51  1  0
 22 52  1  0
 22 53  1  0
 24 54  1  0
 24 55  1  0
 24 56  1  0
 25 57  1  0
 25 58  1  0
 25 59  1  0
 26 60  1  0
 27 61  1  0
 28 62  1  0
 31 63  1  0
 31 64  1  0
 31 65  1  0
M  END
>  <Energy>  (171) 
-30.238701196937949

>  <compound_id>  (171) 
3967

>  <target_id>  (171) 
1

>  <reference_id>  (171) 
176

>  <inspiration_ids>  (171) 
[137, 176]

>  <energy_score>  (171) 
-96.72490689443941

>  <distance_score>  (171) 
1.579178134950671

>  <path>  (171) 
/opt/xchem-fragalysis-2/maxwin/BulkDock/SCRATCH/505735/C3967-P176/C3967-P176.minimised.mol

>  <scratch_subdir>  (171) 
/opt/xchem-fragalysis-2/maxwin/BulkDock/SCRATCH/505735/C3967-P176

>  <fragmenstein_runtime>  (171) 
9.314206600189209

>  <fragmenstein_outcome>  (171) 
too moved

>  <fragmenstein_mode>  (171) 
expansion

>  <fragmenstein_error>  (171) 


$$$$
C3969-P138
     RDKit          3D

 65 67  0  0  0  0  0  0  0  0999 V2000
  -14.8544  -35.7415   20.0219 C   0  0  0  0  0  0  0  0  0  0  0  0
  -15.2871  -34.5273   20.6528 O   0  0  0  0  0  0  0  0  0  0  0  0
  -14.9797  -34.2081   21.9363 C   0  0  0  0  0  0  0  0  0  0  0  0
  -15.3939  -33.1511   22.4120 O   0  0  0  0  0  0  0  0  0  0  0  0
  -14.1122  -35.1927   22.7380 C   0  0  0  0  0  0  0  0  0  0  0  0
  -14.0699  -34.7707   24.2351 C   0  0  0  0  0  0  0  0  0  0  0  0
  -13.1542  -33.5695   24.5056 C   0  0  0  0  0  0  0  0  0  0  0  0
  -12.1743  -33.7737   25.6626 C   0  0  0  0  0  0  0  0  0  0  0  0
  -12.8300  -33.6421   26.9604 N   0  0  0  0  0  0  0  0  0  0  0  0
  -12.8964  -32.2781   27.6647 S   0  0  0  0  0  0  0  0  0  0  0  0
  -11.8543  -31.2806   27.5218 O   0  0  0  0  0  0  0  0  0  0  0  0
  -13.1101  -32.5846   29.3936 C   0  0  0  0  0  0  0  0  0  0  0  0
  -13.7305  -31.4655   30.2178 C   0  0  0  0  0  0  0  0  0  0  0  0
  -14.4414  -32.2124   31.3395 C   0  0  0  0  0  0  0  0  0  0  0  0
  -14.9717  -33.3612   30.6198 N   0  0  0  0  0  0  0  0  0  0  0  0
  -15.6896  -34.3979   31.3482 C   0  0  0  0  0  0  0  0  0  0  0  0
  -15.0041  -34.8851   32.5691 C   0  0  0  0  0  0  0  0  0  0  0  0
  -15.1189  -34.3411   33.8290 C   0  0  0  0  0  0  0  0  0  0  0  0
  -14.3749  -35.0382   34.7156 O   0  0  0  0  0  0  0  0  0  0  0  0
  -13.7769  -36.1016   34.0659 N   0  0  0  0  0  0  0  0  0  0  0  0
  -14.1783  -36.0093   32.7965 C   0  0  0  0  0  0  0  0  0  0  0  0
  -13.6943  -37.2896   31.5077 Br  0  0  0  0  0  0  0  0  0  0  0  0
  -13.9310  -33.8309   29.7099 C   0  0  0  0  0  0  0  0  0  0  0  0
  -14.2720  -31.5576   26.9576 N   0  0  0  0  0  0  0  0  0  0  0  0
  -14.3898  -30.1078   26.8711 C   0  0  0  0  0  0  0  0  0  0  0  0
  -15.5848  -32.1664   27.1276 C   0  0  0  0  0  0  0  0  0  0  0  0
  -12.8248  -35.2295   22.0903 O   0  0  0  0  0  0  0  0  0  0  0  0
  -11.8246  -35.8951   22.7388 C   0  0  0  0  0  0  0  0  0  0  0  0
  -12.0161  -37.0815   23.4398 C   0  0  0  0  0  0  0  0  0  0  0  0
  -10.9880  -37.5839   24.2360 C   0  0  0  0  0  0  0  0  0  0  0  0
   -9.7587  -36.9201   24.3030 C   0  0  0  0  0  0  0  0  0  0  0  0
   -8.7573  -37.3914   25.2102 C   0  0  0  0  0  0  0  0  0  0  0  0
   -7.9804  -37.7820   25.9772 N   0  0  0  0  0  0  0  0  0  0  0  0
   -9.5351  -35.7866   23.5167 C   0  0  0  0  0  0  0  0  0  0  0  0
  -10.5675  -35.2829   22.7233 C   0  0  0  0  0  0  0  0  0  0  0  0
  -13.7829  -35.6996   19.8137 H   0  0  0  0  0  0  0  0  0  0  0  0
  -15.3814  -35.8210   19.0667 H   0  0  0  0  0  0  0  0  0  0  0  0
  -15.1154  -36.6164   20.6218 H   0  0  0  0  0  0  0  0  0  0  0  0
  -14.6013  -36.1719   22.6815 H   0  0  0  0  0  0  0  0  0  0  0  0
  -13.7487  -35.6257   24.8396 H   0  0  0  0  0  0  0  0  0  0  0  0
  -15.0842  -34.5411   24.5860 H   0  0  0  0  0  0  0  0  0  0  0  0
  -12.5639  -33.3578   23.6113 H   0  0  0  0  0  0  0  0  0  0  0  0
  -13.7734  -32.6817   24.6607 H   0  0  0  0  0  0  0  0  0  0  0  0
  -11.3380  -33.0732   25.5830 H   0  0  0  0  0  0  0  0  0  0  0  0
  -11.7320  -34.7728   25.6088 H   0  0  0  0  0  0  0  0  0  0  0  0
  -12.0930  -32.7513   29.7717 H   0  0  0  0  0  0  0  0  0  0  0  0
  -12.9756  -30.7706   30.5995 H   0  0  0  0  0  0  0  0  0  0  0  0
  -14.4599  -30.8839   29.6506 H   0  0  0  0  0  0  0  0  0  0  0  0
  -13.7143  -32.4940   32.1097 H   0  0  0  0  0  0  0  0  0  0  0  0
  -15.2290  -31.6008   31.7893 H   0  0  0  0  0  0  0  0  0  0  0  0
  -16.6645  -33.9848   31.6399 H   0  0  0  0  0  0  0  0  0  0  0  0
  -15.9314  -35.2327   30.6792 H   0  0  0  0  0  0  0  0  0  0  0  0
  -15.6683  -33.5009   34.2254 H   0  0  0  0  0  0  0  0  0  0  0  0
  -13.2739  -34.5619   30.1918 H   0  0  0  0  0  0  0  0  0  0  0  0
  -14.3922  -34.3128   28.8450 H   0  0  0  0  0  0  0  0  0  0  0  0
  -13.4692  -29.6595   26.4838 H   0  0  0  0  0  0  0  0  0  0  0  0
  -15.1800  -29.8129   26.1712 H   0  0  0  0  0  0  0  0  0  0  0  0
  -14.6062  -29.6535   27.8417 H   0  0  0  0  0  0  0  0  0  0  0  0
  -15.5422  -33.2529   27.0036 H   0  0  0  0  0  0  0  0  0  0  0  0
  -16.2899  -31.8057   26.3701 H   0  0  0  0  0  0  0  0  0  0  0  0
  -16.0031  -31.9524   28.1156 H   0  0  0  0  0  0  0  0  0  0  0  0
  -12.9651  -37.6086   23.4187 H   0  0  0  0  0  0  0  0  0  0  0  0
  -11.1596  -38.4839   24.8255 H   0  0  0  0  0  0  0  0  0  0  0  0
   -8.5728  -35.2768   23.5399 H   0  0  0  0  0  0  0  0  0  0  0  0
  -10.4079  -34.3801   22.1392 H   0  0  0  0  0  0  0  0  0  0  0  0
  1  2  1  0
  2  3  1  0
  3  4  2  0
  3  5  1  0
  5  6  1  0
  6  7  1  0
  7  8  1  0
  8  9  1  0
  9 10  2  0
 10 11  2  0
 10 12  1  0
 12 13  1  0
 13 14  1  0
 14 15  1  0
 15 16  1  0
 16 17  1  0
 17 18  2  0
 18 19  1  0
 19 20  1  0
 20 21  2  0
 21 22  1  0
 15 23  1  0
 10 24  1  0
 24 25  1  0
 24 26  1  0
  5 27  1  0
 27 28  1  0
 28 29  2  0
 29 30  1  0
 30 31  2  0
 31 32  1  0
 32 33  3  0
 31 34  1  0
 34 35  2  0
 23 12  1  0
 35 28  1  0
 21 17  1  0
  1 36  1  0
  1 37  1  0
  1 38  1  0
  5 39  1  0
  6 40  1  0
  6 41  1  0
  7 42  1  0
  7 43  1  0
  8 44  1  0
  8 45  1  0
 12 46  1  0
 13 47  1  0
 13 48  1  0
 14 49  1  0
 14 50  1  0
 16 51  1  0
 16 52  1  0
 18 53  1  0
 23 54  1  0
 23 55  1  0
 25 56  1  0
 25 57  1  0
 25 58  1  0
 26 59  1  0
 26 60  1  0
 26 61  1  0
 29 62  1  0
 30 63  1  0
 34 64  1  0
 35 65  1  0
M  END
>  <Energy>  (172) 
-11.041671781302773

>  <compound_id>  (172) 
3969

>  <target_id>  (172) 
1

>  <reference_id>  (172) 
138

>  <inspiration_ids>  (172) 
[138, 19]

>  <energy_score>  (172) 
-60.52643283218933

>  <distance_score>  (172) 
1.8786586979417903

>  <path>  (172) 
/opt/xchem-fragalysis-2/maxwin/BulkDock/SCRATCH/505735/C3969-P138/C3969-P138.minimised.mol

>  <scratch_subdir>  (172) 
/opt/xchem-fragalysis-2/maxwin/BulkDock/SCRATCH/505735/C3969-P138

>  <fragmenstein_runtime>  (172) 
15.08547592163086

>  <fragmenstein_outcome>  (172) 
too moved

>  <fragmenstein_mode>  (172) 
expansion

>  <fragmenstein_error>  (172) 


$$$$
C3969-P19
     RDKit          3D

 65 67  0  0  0  0  0  0  0  0999 V2000
  -13.9975  -34.9503   19.1630 C   0  0  0  0  0  0  0  0  0  0  0  0
  -14.5495  -33.6767   19.5224 O   0  0  0  0  0  0  0  0  0  0  0  0
  -14.3183  -33.0507   20.6947 C   0  0  0  0  0  0  0  0  0  0  0  0
  -14.9850  -32.0603   20.9994 O   0  0  0  0  0  0  0  0  0  0  0  0
  -13.2628  -33.5744   21.6763 C   0  0  0  0  0  0  0  0  0  0  0  0
  -13.9757  -34.5205   22.6888 C   0  0  0  0  0  0  0  0  0  0  0  0
  -13.4637  -34.5602   24.1596 C   0  0  0  0  0  0  0  0  0  0  0  0
  -13.3651  -33.1811   24.8114 C   0  0  0  0  0  0  0  0  0  0  0  0
  -13.4531  -33.0619   26.2861 N   0  0  0  0  0  0  0  0  0  0  0  0
  -14.7788  -33.5427   26.9242 S   0  0  0  0  0  0  0  0  0  0  0  0
  -15.3129  -34.8004   26.4653 O   0  0  0  0  0  0  0  0  0  0  0  0
  -14.8210  -33.7255   28.6505 C   0  0  0  0  0  0  0  0  0  0  0  0
  -15.3342  -32.6148   29.4935 C   0  0  0  0  0  0  0  0  0  0  0  0
  -15.4703  -33.2005   30.8911 C   0  0  0  0  0  0  0  0  0  0  0  0
  -15.6416  -34.6526   30.6956 N   0  0  0  0  0  0  0  0  0  0  0  0
  -14.4955  -35.4211   31.2145 C   0  0  0  0  0  0  0  0  0  0  0  0
  -14.4088  -35.5122   32.6950 C   0  0  0  0  0  0  0  0  0  0  0  0
  -14.9792  -34.7671   33.7017 C   0  0  0  0  0  0  0  0  0  0  0  0
  -14.5581  -35.2128   34.9133 O   0  0  0  0  0  0  0  0  0  0  0  0
  -13.6824  -36.2711   34.7362 N   0  0  0  0  0  0  0  0  0  0  0  0
  -13.6238  -36.4440   33.4162 C   0  0  0  0  0  0  0  0  0  0  0  0
  -12.5820  -37.7894   32.6058 Br  0  0  0  0  0  0  0  0  0  0  0  0
  -15.7003  -34.8291   29.2074 C   0  0  0  0  0  0  0  0  0  0  0  0
  -15.9205  -32.4070   26.3815 N   0  0  0  0  0  0  0  0  0  0  0  0
  -15.7141  -30.9761   26.5017 C   0  0  0  0  0  0  0  0  0  0  0  0
  -16.7001  -32.6873   25.1898 C   0  0  0  0  0  0  0  0  0  0  0  0
  -12.1248  -34.0925   20.9744 O   0  0  0  0  0  0  0  0  0  0  0  0
  -11.2003  -34.6023   21.8316 C   0  0  0  0  0  0  0  0  0  0  0  0
  -11.2049  -35.9813   21.9953 C   0  0  0  0  0  0  0  0  0  0  0  0
  -10.5278  -36.5397   23.0666 C   0  0  0  0  0  0  0  0  0  0  0  0
   -9.8203  -35.7129   23.9344 C   0  0  0  0  0  0  0  0  0  0  0  0
   -9.3134  -36.2626   25.1408 C   0  0  0  0  0  0  0  0  0  0  0  0
   -8.9774  -36.7281   26.1459 N   0  0  0  0  0  0  0  0  0  0  0  0
   -9.7049  -34.3472   23.6754 C   0  0  0  0  0  0  0  0  0  0  0  0
  -10.3832  -33.7841   22.5992 C   0  0  0  0  0  0  0  0  0  0  0  0
  -13.9873  -35.6413   20.0077 H   0  0  0  0  0  0  0  0  0  0  0  0
  -14.6399  -35.3801   18.3890 H   0  0  0  0  0  0  0  0  0  0  0  0
  -12.9999  -34.8153   18.7376 H   0  0  0  0  0  0  0  0  0  0  0  0
  -12.9156  -32.6718   22.1877 H   0  0  0  0  0  0  0  0  0  0  0  0
  -13.9692  -35.5471   22.3050 H   0  0  0  0  0  0  0  0  0  0  0  0
  -15.0356  -34.2368   22.7487 H   0  0  0  0  0  0  0  0  0  0  0  0
  -12.4995  -35.0536   24.2423 H   0  0  0  0  0  0  0  0  0  0  0  0
  -14.1379  -35.2382   24.6787 H   0  0  0  0  0  0  0  0  0  0  0  0
  -14.1346  -32.5499   24.3763 H   0  0  0  0  0  0  0  0  0  0  0  0
  -12.3998  -32.7674   24.5284 H   0  0  0  0  0  0  0  0  0  0  0  0
  -13.8276  -34.0229   28.9032 H   0  0  0  0  0  0  0  0  0  0  0  0
  -14.6743  -31.7749   29.4698 H   0  0  0  0  0  0  0  0  0  0  0  0
  -16.3249  -32.3193   29.1301 H   0  0  0  0  0  0  0  0  0  0  0  0
  -14.6174  -32.9344   31.5226 H   0  0  0  0  0  0  0  0  0  0  0  0
  -16.3606  -32.7926   31.3806 H   0  0  0  0  0  0  0  0  0  0  0  0
  -14.6137  -36.4506   30.8499 H   0  0  0  0  0  0  0  0  0  0  0  0
  -13.5362  -35.0691   30.8244 H   0  0  0  0  0  0  0  0  0  0  0  0
  -15.6586  -33.9281   33.7355 H   0  0  0  0  0  0  0  0  0  0  0  0
  -15.3878  -35.8307   28.8891 H   0  0  0  0  0  0  0  0  0  0  0  0
  -16.7431  -34.7118   28.8826 H   0  0  0  0  0  0  0  0  0  0  0  0
  -14.7591  -30.6676   26.0833 H   0  0  0  0  0  0  0  0  0  0  0  0
  -16.4961  -30.3882   26.0059 H   0  0  0  0  0  0  0  0  0  0  0  0
  -15.7783  -30.7036   27.5478 H   0  0  0  0  0  0  0  0  0  0  0  0
  -16.9683  -33.7445   25.0997 H   0  0  0  0  0  0  0  0  0  0  0  0
  -16.1955  -32.3889   24.2670 H   0  0  0  0  0  0  0  0  0  0  0  0
  -17.6585  -32.1547   25.2256 H   0  0  0  0  0  0  0  0  0  0  0  0
  -11.8115  -36.6124   21.3504 H   0  0  0  0  0  0  0  0  0  0  0  0
  -10.6046  -37.6105   23.2471 H   0  0  0  0  0  0  0  0  0  0  0  0
   -9.1482  -33.7096   24.3550 H   0  0  0  0  0  0  0  0  0  0  0  0
  -10.3461  -32.7146   22.4213 H   0  0  0  0  0  0  0  0  0  0  0  0
  1  2  1  0
  2  3  1  0
  3  4  2  0
  3  5  1  0
  5  6  1  0
  6  7  1  0
  7  8  1  0
  8  9  1  0
  9 10  2  0
 10 11  2  0
 10 12  1  0
 12 13  1  0
 13 14  1  0
 14 15  1  0
 15 16  1  0
 16 17  1  0
 17 18  2  0
 18 19  1  0
 19 20  1  0
 20 21  2  0
 21 22  1  0
 15 23  1  0
 10 24  1  0
 24 25  1  0
 24 26  1  0
  5 27  1  0
 27 28  1  0
 28 29  2  0
 29 30  1  0
 30 31  2  0
 31 32  1  0
 32 33  3  0
 31 34  1  0
 34 35  2  0
 23 12  1  0
 35 28  1  0
 21 17  1  0
  1 36  1  0
  1 37  1  0
  1 38  1  0
  5 39  1  0
  6 40  1  0
  6 41  1  0
  7 42  1  0
  7 43  1  0
  8 44  1  0
  8 45  1  0
 12 46  1  0
 13 47  1  0
 13 48  1  0
 14 49  1  0
 14 50  1  0
 16 51  1  0
 16 52  1  0
 18 53  1  0
 23 54  1  0
 23 55  1  0
 25 56  1  0
 25 57  1  0
 25 58  1  0
 26 59  1  0
 26 60  1  0
 26 61  1  0
 29 62  1  0
 30 63  1  0
 34 64  1  0
 35 65  1  0
M  END
>  <Energy>  (173) 
16.834480090216143

>  <compound_id>  (173) 
3969

>  <target_id>  (173) 
1

>  <reference_id>  (173) 
19

>  <inspiration_ids>  (173) 
[138, 19]

>  <energy_score>  (173) 
-20.765163532292377

>  <distance_score>  (173) 
2.1869215888212006

>  <path>  (173) 
/opt/xchem-fragalysis-2/maxwin/BulkDock/SCRATCH/505735/C3969-P19/C3969-P19.minimised.mol

>  <scratch_subdir>  (173) 
/opt/xchem-fragalysis-2/maxwin/BulkDock/SCRATCH/505735/C3969-P19

>  <fragmenstein_runtime>  (173) 
11.973451614379883

>  <fragmenstein_outcome>  (173) 
too moved

>  <fragmenstein_mode>  (173) 
expansion

>  <fragmenstein_error>  (173) 


$$$$
C3970-P138
     RDKit          3D

 63 65  0  0  0  0  0  0  0  0999 V2000
  -11.6510  -23.0343   27.6244 C   0  0  0  0  0  0  0  0  0  0  0  0
  -12.7039  -23.9892   28.0425 C   0  0  0  0  0  0  0  0  0  0  0  0
  -13.0983  -24.8745   27.1339 N   0  0  0  0  0  0  0  0  0  0  0  0
  -14.2937  -25.7904   27.7697 S   0  0  0  0  0  0  0  0  0  0  0  0
  -14.2604  -25.1226   29.3834 C   0  0  0  0  0  0  0  0  0  0  0  0
  -15.0759  -25.6160   30.3942 N   0  0  0  0  0  0  0  0  0  0  0  0
  -14.8992  -27.0613   30.7451 C   0  0  0  0  0  0  0  0  0  0  0  0
  -15.4748  -28.0771   29.7613 C   0  0  0  0  0  0  0  0  0  0  0  0
  -14.3531  -28.9921   29.2635 C   0  0  0  0  0  0  0  0  0  0  0  0
  -14.9233  -30.0504   28.4340 N   0  0  0  0  0  0  0  0  0  0  0  0
  -14.0275  -31.1251   27.8137 S   0  0  0  0  0  0  0  0  0  0  0  0
  -12.7472  -30.8875   27.1777 O   0  0  0  0  0  0  0  0  0  0  0  0
  -13.8189  -32.4670   28.9294 C   0  0  0  0  0  0  0  0  0  0  0  0
  -12.8713  -32.2078   30.0759 C   0  0  0  0  0  0  0  0  0  0  0  0
  -13.2234  -33.3487   31.0022 C   0  0  0  0  0  0  0  0  0  0  0  0
  -14.6883  -33.4130   30.9296 N   0  0  0  0  0  0  0  0  0  0  0  0
  -15.2572  -34.7228   31.2440 C   0  0  0  0  0  0  0  0  0  0  0  0
  -14.8261  -35.1330   32.5994 C   0  0  0  0  0  0  0  0  0  0  0  0
  -15.0926  -34.5008   33.7916 C   0  0  0  0  0  0  0  0  0  0  0  0
  -14.4518  -35.1312   34.8040 O   0  0  0  0  0  0  0  0  0  0  0  0
  -13.7580  -36.2200   34.2978 N   0  0  0  0  0  0  0  0  0  0  0  0
  -14.0073  -36.2119   32.9883 C   0  0  0  0  0  0  0  0  0  0  0  0
  -13.2801  -37.4684   31.7928 Br  0  0  0  0  0  0  0  0  0  0  0  0
  -15.0990  -32.9348   29.5954 C   0  0  0  0  0  0  0  0  0  0  0  0
  -15.0128  -31.7412   26.5409 N   0  0  0  0  0  0  0  0  0  0  0  0
  -15.8539  -30.7967   25.8100 C   0  0  0  0  0  0  0  0  0  0  0  0
  -14.4281  -32.7054   25.6163 C   0  0  0  0  0  0  0  0  0  0  0  0
  -15.2661  -24.8004   31.6453 C   0  0  0  0  0  0  0  0  0  0  0  0
  -16.6643  -25.1057   32.2540 C   0  0  0  0  0  0  0  0  0  0  0  0
  -17.6686  -24.8564   31.2371 N   0  0  0  0  0  0  0  0  0  0  0  0
  -16.7753  -25.5000   33.3819 O   0  0  0  0  0  0  0  0  0  0  0  0
  -13.3340  -24.0808   29.3312 C   0  0  0  0  0  0  0  0  0  0  0  0
  -13.0000  -23.2130   30.4142 C   0  0  0  0  0  0  0  0  0  0  0  0
  -12.7731  -22.4572   31.2626 N   0  0  0  0  0  0  0  0  0  0  0  0
  -11.4891  -22.2444   28.3610 H   0  0  0  0  0  0  0  0  0  0  0  0
  -10.7105  -23.5715   27.4731 H   0  0  0  0  0  0  0  0  0  0  0  0
  -11.9250  -22.5558   26.6812 H   0  0  0  0  0  0  0  0  0  0  0  0
  -15.4139  -27.2613   31.6916 H   0  0  0  0  0  0  0  0  0  0  0  0
  -13.8413  -27.2554   30.9240 H   0  0  0  0  0  0  0  0  0  0  0  0
  -16.0326  -27.6182   28.9396 H   0  0  0  0  0  0  0  0  0  0  0  0
  -16.2109  -28.6955   30.2945 H   0  0  0  0  0  0  0  0  0  0  0  0
  -13.6071  -28.4350   28.6908 H   0  0  0  0  0  0  0  0  0  0  0  0
  -13.8445  -29.4232   30.1283 H   0  0  0  0  0  0  0  0  0  0  0  0
  -13.4012  -33.2947   28.3407 H   0  0  0  0  0  0  0  0  0  0  0  0
  -13.0510  -31.2537   30.5743 H   0  0  0  0  0  0  0  0  0  0  0  0
  -11.8290  -32.2288   29.7564 H   0  0  0  0  0  0  0  0  0  0  0  0
  -12.7535  -34.2721   30.6410 H   0  0  0  0  0  0  0  0  0  0  0  0
  -12.8778  -33.1425   32.0183 H   0  0  0  0  0  0  0  0  0  0  0  0
  -14.9737  -35.4624   30.4872 H   0  0  0  0  0  0  0  0  0  0  0  0
  -16.3527  -34.6589   31.2316 H   0  0  0  0  0  0  0  0  0  0  0  0
  -15.6615  -33.6216   34.0571 H   0  0  0  0  0  0  0  0  0  0  0  0
  -15.8359  -32.1381   29.7343 H   0  0  0  0  0  0  0  0  0  0  0  0
  -15.5734  -33.7122   28.9839 H   0  0  0  0  0  0  0  0  0  0  0  0
  -16.4289  -31.2862   25.0156 H   0  0  0  0  0  0  0  0  0  0  0  0
  -16.5958  -30.3383   26.4721 H   0  0  0  0  0  0  0  0  0  0  0  0
  -15.2550  -29.9986   25.3646 H   0  0  0  0  0  0  0  0  0  0  0  0
  -15.1962  -33.1859   25.0001 H   0  0  0  0  0  0  0  0  0  0  0  0
  -13.6964  -32.2342   24.9573 H   0  0  0  0  0  0  0  0  0  0  0  0
  -13.9235  -33.5120   26.1564 H   0  0  0  0  0  0  0  0  0  0  0  0
  -15.2795  -23.7267   31.4318 H   0  0  0  0  0  0  0  0  0  0  0  0
  -14.4813  -24.9988   32.3803 H   0  0  0  0  0  0  0  0  0  0  0  0
  -17.2112  -24.4032   30.4085 H   0  0  0  0  0  0  0  0  0  0  0  0
  -17.1893  -24.6296   30.3316 H   0  0  0  0  0  0  0  0  0  0  0  0
  1  2  1  0
  2  3  2  0
  3  4  1  0
  4  5  1  0
  5  6  1  0
  6  7  1  0
  7  8  1  0
  8  9  1  0
  9 10  1  0
 10 11  2  0
 11 12  2  0
 11 13  1  0
 13 14  1  0
 14 15  1  0
 15 16  1  0
 16 17  1  0
 17 18  1  0
 18 19  2  0
 19 20  1  0
 20 21  1  0
 21 22  2  0
 22 23  1  0
 16 24  1  0
 11 25  1  0
 25 26  1  0
 25 27  1  0
  6 28  1  0
 28 29  1  0
 29 30  1  0
 29 31  2  0
  5 32  2  0
 32 33  1  0
 33 34  3  0
 32  2  1  0
 24 13  1  0
 22 18  1  0
  1 35  1  0
  1 36  1  0
  1 37  1  0
  7 38  1  0
  7 39  1  0
  8 40  1  0
  8 41  1  0
  9 42  1  0
  9 43  1  0
 13 44  1  0
 14 45  1  0
 14 46  1  0
 15 47  1  0
 15 48  1  0
 17 49  1  0
 17 50  1  0
 19 51  1  0
 24 52  1  0
 24 53  1  0
 26 54  1  0
 26 55  1  0
 26 56  1  0
 27 57  1  0
 27 58  1  0
 27 59  1  0
 28 60  1  0
 28 61  1  0
 30 62  1  0
 30 63  1  0
M  END
>  <Energy>  (174) 
146.82369208700621

>  <compound_id>  (174) 
3970

>  <target_id>  (174) 
1

>  <reference_id>  (174) 
138

>  <inspiration_ids>  (174) 
[138, 38]

>  <energy_score>  (174) 
76.97347440847511

>  <distance_score>  (174) 
2.125973177207534

>  <path>  (174) 
/opt/xchem-fragalysis-2/maxwin/BulkDock/SCRATCH/505735/C3970-P138/C3970-P138.minimised.mol

>  <scratch_subdir>  (174) 
/opt/xchem-fragalysis-2/maxwin/BulkDock/SCRATCH/505735/C3970-P138

>  <fragmenstein_runtime>  (174) 
17.95236587524414

>  <fragmenstein_outcome>  (174) 
too moved

>  <fragmenstein_mode>  (174) 
expansion

>  <fragmenstein_error>  (174) 


$$$$
C3970-P38
     RDKit          3D

 63 65  0  0  0  0  0  0  0  0999 V2000
  -11.8725  -23.5743   26.3902 C   0  0  0  0  0  0  0  0  0  0  0  0
  -11.4223  -24.5259   27.4188 C   0  0  0  0  0  0  0  0  0  0  0  0
  -10.8666  -25.6401   26.9746 N   0  0  0  0  0  0  0  0  0  0  0  0
  -10.2308  -26.3997   28.2603 S   0  0  0  0  0  0  0  0  0  0  0  0
  -11.1395  -25.5773   29.4838 C   0  0  0  0  0  0  0  0  0  0  0  0
  -11.2961  -26.0702   30.7852 N   0  0  0  0  0  0  0  0  0  0  0  0
  -11.0209  -27.5479   30.9374 C   0  0  0  0  0  0  0  0  0  0  0  0
  -12.1308  -28.5395   30.5299 C   0  0  0  0  0  0  0  0  0  0  0  0
  -12.8720  -28.3294   29.1920 C   0  0  0  0  0  0  0  0  0  0  0  0
  -14.1276  -29.1145   29.1861 N   0  0  0  0  0  0  0  0  0  0  0  0
  -14.1886  -30.5158   28.5584 S   0  0  0  0  0  0  0  0  0  0  0  0
  -13.1226  -31.0682   27.7568 O   0  0  0  0  0  0  0  0  0  0  0  0
  -14.5629  -31.6872   29.8168 C   0  0  0  0  0  0  0  0  0  0  0  0
  -15.3152  -31.1536   31.0119 C   0  0  0  0  0  0  0  0  0  0  0  0
  -15.8222  -32.4208   31.6897 C   0  0  0  0  0  0  0  0  0  0  0  0
  -15.8452  -33.4966   30.6734 N   0  0  0  0  0  0  0  0  0  0  0  0
  -14.9386  -34.6236   30.9548 C   0  0  0  0  0  0  0  0  0  0  0  0
  -15.3860  -35.4813   32.0873 C   0  0  0  0  0  0  0  0  0  0  0  0
  -16.4244  -35.3242   32.9790 C   0  0  0  0  0  0  0  0  0  0  0  0
  -16.4085  -36.3153   33.9036 O   0  0  0  0  0  0  0  0  0  0  0  0
  -15.3694  -37.1855   33.6231 N   0  0  0  0  0  0  0  0  0  0  0  0
  -14.7973  -36.6945   32.5243 C   0  0  0  0  0  0  0  0  0  0  0  0
  -13.3237  -37.5288   31.6994 Br  0  0  0  0  0  0  0  0  0  0  0  0
  -15.4571  -32.8341   29.4065 C   0  0  0  0  0  0  0  0  0  0  0  0
  -15.4575  -30.3740   27.4236 N   0  0  0  0  0  0  0  0  0  0  0  0
  -16.7122  -29.7302   27.7835 C   0  0  0  0  0  0  0  0  0  0  0  0
  -15.6944  -31.4250   26.4354 C   0  0  0  0  0  0  0  0  0  0  0  0
  -10.4519  -25.3358   31.7952 C   0  0  0  0  0  0  0  0  0  0  0  0
  -11.0268  -23.9848   32.2225 C   0  0  0  0  0  0  0  0  0  0  0  0
  -12.4606  -23.9797   32.2498 N   0  0  0  0  0  0  0  0  0  0  0  0
  -10.2392  -23.1374   32.5222 O   0  0  0  0  0  0  0  0  0  0  0  0
  -11.5005  -24.3886   28.8494 C   0  0  0  0  0  0  0  0  0  0  0  0
  -11.8810  -23.1599   29.4585 C   0  0  0  0  0  0  0  0  0  0  0  0
  -12.0645  -22.0872   29.8584 N   0  0  0  0  0  0  0  0  0  0  0  0
  -12.9487  -23.6799   26.2452 H   0  0  0  0  0  0  0  0  0  0  0  0
  -11.6149  -22.5585   26.6935 H   0  0  0  0  0  0  0  0  0  0  0  0
  -11.3992  -23.7681   25.4219 H   0  0  0  0  0  0  0  0  0  0  0  0
  -10.0435  -27.7896   30.5218 H   0  0  0  0  0  0  0  0  0  0  0  0
  -10.8860  -27.7482   31.9989 H   0  0  0  0  0  0  0  0  0  0  0  0
  -11.7611  -29.5665   30.6227 H   0  0  0  0  0  0  0  0  0  0  0  0
  -12.8173  -28.6401   31.3567 H   0  0  0  0  0  0  0  0  0  0  0  0
  -13.1626  -27.2826   29.0784 H   0  0  0  0  0  0  0  0  0  0  0  0
  -12.2782  -28.5528   28.3060 H   0  0  0  0  0  0  0  0  0  0  0  0
  -13.5903  -32.0654   30.1582 H   0  0  0  0  0  0  0  0  0  0  0  0
  -16.1611  -30.5258   30.7074 H   0  0  0  0  0  0  0  0  0  0  0  0
  -14.6778  -30.5613   31.6699 H   0  0  0  0  0  0  0  0  0  0  0  0
  -15.1853  -32.6548   32.5442 H   0  0  0  0  0  0  0  0  0  0  0  0
  -16.8330  -32.2566   32.0789 H   0  0  0  0  0  0  0  0  0  0  0  0
  -13.9185  -34.2676   31.1418 H   0  0  0  0  0  0  0  0  0  0  0  0
  -14.9000  -35.2678   30.0663 H   0  0  0  0  0  0  0  0  0  0  0  0
  -17.2107  -34.5938   33.1011 H   0  0  0  0  0  0  0  0  0  0  0  0
  -16.3900  -32.4735   28.9638 H   0  0  0  0  0  0  0  0  0  0  0  0
  -15.0013  -33.5056   28.6727 H   0  0  0  0  0  0  0  0  0  0  0  0
  -16.5477  -28.7830   28.3064 H   0  0  0  0  0  0  0  0  0  0  0  0
  -17.3030  -29.4810   26.8945 H   0  0  0  0  0  0  0  0  0  0  0  0
  -17.3204  -30.3707   28.4297 H   0  0  0  0  0  0  0  0  0  0  0  0
  -16.3151  -32.2346   26.8271 H   0  0  0  0  0  0  0  0  0  0  0  0
  -16.2038  -31.0186   25.5542 H   0  0  0  0  0  0  0  0  0  0  0  0
  -14.7601  -31.8669   26.0759 H   0  0  0  0  0  0  0  0  0  0  0  0
   -9.4358  -25.1965   31.4047 H   0  0  0  0  0  0  0  0  0  0  0  0
  -10.3728  -25.9052   32.7287 H   0  0  0  0  0  0  0  0  0  0  0  0
  -12.8068  -24.9350   32.0290 H   0  0  0  0  0  0  0  0  0  0  0  0
  -12.8116  -24.8549   31.8046 H   0  0  0  0  0  0  0  0  0  0  0  0
  1  2  1  0
  2  3  2  0
  3  4  1  0
  4  5  1  0
  5  6  1  0
  6  7  1  0
  7  8  1  0
  8  9  1  0
  9 10  1  0
 10 11  2  0
 11 12  2  0
 11 13  1  0
 13 14  1  0
 14 15  1  0
 15 16  1  0
 16 17  1  0
 17 18  1  0
 18 19  2  0
 19 20  1  0
 20 21  1  0
 21 22  2  0
 22 23  1  0
 16 24  1  0
 11 25  1  0
 25 26  1  0
 25 27  1  0
  6 28  1  0
 28 29  1  0
 29 30  1  0
 29 31  2  0
  5 32  2  0
 32 33  1  0
 33 34  3  0
 32  2  1  0
 24 13  1  0
 22 18  1  0
  1 35  1  0
  1 36  1  0
  1 37  1  0
  7 38  1  0
  7 39  1  0
  8 40  1  0
  8 41  1  0
  9 42  1  0
  9 43  1  0
 13 44  1  0
 14 45  1  0
 14 46  1  0
 15 47  1  0
 15 48  1  0
 17 49  1  0
 17 50  1  0
 19 51  1  0
 24 52  1  0
 24 53  1  0
 26 54  1  0
 26 55  1  0
 26 56  1  0
 27 57  1  0
 27 58  1  0
 27 59  1  0
 28 60  1  0
 28 61  1  0
 30 62  1  0
 30 63  1  0
M  END
>  <Energy>  (175) 
172.72016970325424

>  <compound_id>  (175) 
3970

>  <target_id>  (175) 
1

>  <reference_id>  (175) 
38

>  <inspiration_ids>  (175) 
[138, 38]

>  <energy_score>  (175) 
102.86995202472934

>  <distance_score>  (175) 
1.8460331439820825

>  <path>  (175) 
/opt/xchem-fragalysis-2/maxwin/BulkDock/SCRATCH/505735/C3970-P38/C3970-P38.minimised.mol

>  <scratch_subdir>  (175) 
/opt/xchem-fragalysis-2/maxwin/BulkDock/SCRATCH/505735/C3970-P38

>  <fragmenstein_runtime>  (175) 
17.147839307785034

>  <fragmenstein_outcome>  (175) 
too moved

>  <fragmenstein_mode>  (175) 
expansion

>  <fragmenstein_error>  (175) 


$$$$
C3971-P138
     RDKit          3D

 69 72  0  0  0  0  0  0  0  0999 V2000
  -15.0099  -31.1337   25.7504 C   0  0  0  0  0  0  0  0  0  0  0  0
  -14.2830  -32.0743   26.5959 N   0  0  0  0  0  0  0  0  0  0  0  0
  -13.7219  -33.1551   25.8044 C   0  0  0  0  0  0  0  0  0  0  0  0
  -13.3804  -31.4330   27.9102 S   0  0  0  0  0  0  0  0  0  0  0  0
  -12.0089  -31.4566   27.4436 O   0  0  0  0  0  0  0  0  0  0  0  0
  -14.2211  -30.2060   28.2319 N   0  0  0  0  0  0  0  0  0  0  0  0
  -13.8973  -29.2151   29.2398 C   0  0  0  0  0  0  0  0  0  0  0  0
  -15.2326  -28.7402   29.8226 C   0  0  0  0  0  0  0  0  0  0  0  0
  -15.0221  -27.6764   30.8976 C   0  0  0  0  0  0  0  0  0  0  0  0
  -15.7099  -26.3081   30.6717 C   0  0  0  0  0  0  0  0  0  0  0  0
  -17.2330  -26.5049   30.5509 C   0  0  0  0  0  0  0  0  0  0  0  0
  -15.1535  -25.6890   29.3565 C   0  0  0  0  0  0  0  0  0  0  0  0
  -13.9902  -24.8402   29.5767 N   0  0  0  0  0  0  0  0  0  0  0  0
  -13.1896  -24.5470   28.4880 C   0  0  0  0  0  0  0  0  0  0  0  0
  -13.0975  -25.4904   27.5264 N   0  0  0  0  0  0  0  0  0  0  0  0
  -12.1583  -25.3401   26.5819 C   0  0  0  0  0  0  0  0  0  0  0  0
  -11.3105  -24.2647   26.5076 C   0  0  0  0  0  0  0  0  0  0  0  0
  -11.4746  -23.2605   27.4351 C   0  0  0  0  0  0  0  0  0  0  0  0
  -12.4053  -23.3995   28.4244 C   0  0  0  0  0  0  0  0  0  0  0  0
  -12.5375  -22.3741   29.2812 F   0  0  0  0  0  0  0  0  0  0  0  0
  -13.9643  -23.9263   30.7121 C   0  0  0  0  0  0  0  0  0  0  0  0
  -14.4878  -24.5250   31.9806 C   0  0  0  0  0  0  0  0  0  0  0  0
  -14.1206  -24.0972   33.0746 O   0  0  0  0  0  0  0  0  0  0  0  0
  -15.4865  -25.4636   31.8708 N   0  0  0  0  0  0  0  0  0  0  0  0
  -13.5446  -32.6379   29.1907 C   0  0  0  0  0  0  0  0  0  0  0  0
  -12.6974  -32.3749   30.4261 C   0  0  0  0  0  0  0  0  0  0  0  0
  -13.6941  -32.3808   31.5702 C   0  0  0  0  0  0  0  0  0  0  0  0
  -14.8520  -33.1731   31.1134 N   0  0  0  0  0  0  0  0  0  0  0  0
  -14.6715  -34.6298   31.1830 C   0  0  0  0  0  0  0  0  0  0  0  0
  -14.4829  -35.1051   32.5696 C   0  0  0  0  0  0  0  0  0  0  0  0
  -14.9062  -34.5542   33.7559 C   0  0  0  0  0  0  0  0  0  0  0  0
  -14.4395  -35.2824   34.7973 O   0  0  0  0  0  0  0  0  0  0  0  0
  -13.7447  -36.3805   34.3110 N   0  0  0  0  0  0  0  0  0  0  0  0
  -13.8140  -36.2724   32.9854 C   0  0  0  0  0  0  0  0  0  0  0  0
  -13.0742  -37.5194   31.7873 Br  0  0  0  0  0  0  0  0  0  0  0  0
  -14.9769  -32.7709   29.6948 C   0  0  0  0  0  0  0  0  0  0  0  0
  -14.3391  -30.3480   25.3988 H   0  0  0  0  0  0  0  0  0  0  0  0
  -15.8359  -30.6678   26.2984 H   0  0  0  0  0  0  0  0  0  0  0  0
  -15.4688  -31.6193   24.8818 H   0  0  0  0  0  0  0  0  0  0  0  0
  -14.4859  -33.6370   25.1843 H   0  0  0  0  0  0  0  0  0  0  0  0
  -13.3150  -33.9401   26.4500 H   0  0  0  0  0  0  0  0  0  0  0  0
  -12.9153  -32.8079   25.1560 H   0  0  0  0  0  0  0  0  0  0  0  0
  -13.2790  -29.6270   30.0389 H   0  0  0  0  0  0  0  0  0  0  0  0
  -13.3551  -28.3906   28.7696 H   0  0  0  0  0  0  0  0  0  0  0  0
  -15.8898  -28.3985   29.0158 H   0  0  0  0  0  0  0  0  0  0  0  0
  -15.7520  -29.5920   30.2810 H   0  0  0  0  0  0  0  0  0  0  0  0
  -13.9478  -27.5068   31.0045 H   0  0  0  0  0  0  0  0  0  0  0  0
  -15.3771  -28.0972   31.8475 H   0  0  0  0  0  0  0  0  0  0  0  0
  -17.7498  -25.5389   30.5159 H   0  0  0  0  0  0  0  0  0  0  0  0
  -17.6299  -27.0480   31.4165 H   0  0  0  0  0  0  0  0  0  0  0  0
  -17.5129  -27.0561   29.6483 H   0  0  0  0  0  0  0  0  0  0  0  0
  -15.9273  -25.1417   28.8292 H   0  0  0  0  0  0  0  0  0  0  0  0
  -14.9128  -26.4945   28.6566 H   0  0  0  0  0  0  0  0  0  0  0  0
  -12.0983  -26.1480   25.8596 H   0  0  0  0  0  0  0  0  0  0  0  0
  -10.5709  -24.2123   25.7207 H   0  0  0  0  0  0  0  0  0  0  0  0
  -10.9264  -22.3351   27.4312 H   0  0  0  0  0  0  0  0  0  0  0  0
  -12.9295  -23.6639   30.9654 H   0  0  0  0  0  0  0  0  0  0  0  0
  -14.5360  -23.0162   30.5076 H   0  0  0  0  0  0  0  0  0  0  0  0
  -15.6852  -25.8766   32.7723 H   0  0  0  0  0  0  0  0  0  0  0  0
  -13.2121  -33.5868   28.7517 H   0  0  0  0  0  0  0  0  0  0  0  0
  -11.9953  -33.2050   30.5605 H   0  0  0  0  0  0  0  0  0  0  0  0
  -12.1117  -31.4533   30.3922 H   0  0  0  0  0  0  0  0  0  0  0  0
  -14.0449  -31.3586   31.7498 H   0  0  0  0  0  0  0  0  0  0  0  0
  -13.2421  -32.7198   32.5059 H   0  0  0  0  0  0  0  0  0  0  0  0
  -15.5703  -35.1194   30.7855 H   0  0  0  0  0  0  0  0  0  0  0  0
  -13.8302  -34.9521   30.5595 H   0  0  0  0  0  0  0  0  0  0  0  0
  -15.4826  -33.6752   34.0047 H   0  0  0  0  0  0  0  0  0  0  0  0
  -15.5591  -33.4827   29.0974 H   0  0  0  0  0  0  0  0  0  0  0  0
  -15.5355  -31.8317   29.6678 H   0  0  0  0  0  0  0  0  0  0  0  0
  1  2  1  0
  2  3  1  0
  2  4  1  0
  4  5  2  0
  4  6  2  0
  6  7  1  0
  7  8  1  0
  8  9  1  0
  9 10  1  0
 10 11  1  0
 10 12  1  0
 12 13  1  0
 13 14  1  0
 14 15  2  0
 15 16  1  0
 16 17  2  0
 17 18  1  0
 18 19  2  0
 19 20  1  0
 13 21  1  0
 21 22  1  0
 22 23  2  0
 22 24  1  0
  4 25  1  0
 25 26  1  0
 26 27  1  0
 27 28  1  0
 28 29  1  0
 29 30  1  0
 30 31  2  0
 31 32  1  0
 32 33  1  0
 33 34  2  0
 34 35  1  0
 28 36  1  0
 24 10  1  0
 36 25  1  0
 19 14  1  0
 34 30  1  0
  1 37  1  0
  1 38  1  0
  1 39  1  0
  3 40  1  0
  3 41  1  0
  3 42  1  0
  7 43  1  0
  7 44  1  0
  8 45  1  0
  8 46  1  0
  9 47  1  0
  9 48  1  0
 11 49  1  0
 11 50  1  0
 11 51  1  0
 12 52  1  0
 12 53  1  0
 16 54  1  0
 17 55  1  0
 18 56  1  0
 21 57  1  0
 21 58  1  0
 24 59  1  0
 25 60  1  0
 26 61  1  0
 26 62  1  0
 27 63  1  0
 27 64  1  0
 29 65  1  0
 29 66  1  0
 31 67  1  0
 36 68  1  0
 36 69  1  0
M  END
>  <Energy>  (176) 
24.703478462088082

>  <compound_id>  (176) 
3971

>  <target_id>  (176) 
1

>  <reference_id>  (176) 
138

>  <inspiration_ids>  (176) 
[138, 39]

>  <energy_score>  (176) 
-69.84837890759763

>  <distance_score>  (176) 
2.0095135952412826

>  <path>  (176) 
/opt/xchem-fragalysis-2/maxwin/BulkDock/SCRATCH/505735/C3971-P138/C3971-P138.minimised.mol

>  <scratch_subdir>  (176) 
/opt/xchem-fragalysis-2/maxwin/BulkDock/SCRATCH/505735/C3971-P138

>  <fragmenstein_runtime>  (176) 
11.412981986999512

>  <fragmenstein_outcome>  (176) 
too moved

>  <fragmenstein_mode>  (176) 
expansion

>  <fragmenstein_error>  (176) 


$$$$
C3971-P39
     RDKit          3D

 69 72  0  0  0  0  0  0  0  0999 V2000
  -16.6360  -30.6989   26.6240 C   0  0  0  0  0  0  0  0  0  0  0  0
  -16.2796  -32.0300   27.1078 N   0  0  0  0  0  0  0  0  0  0  0  0
  -16.4309  -32.9937   26.0171 C   0  0  0  0  0  0  0  0  0  0  0  0
  -14.9209  -32.2164   28.1394 S   0  0  0  0  0  0  0  0  0  0  0  0
  -13.9848  -32.9517   27.3183 O   0  0  0  0  0  0  0  0  0  0  0  0
  -14.6331  -30.8038   28.6498 N   0  0  0  0  0  0  0  0  0  0  0  0
  -13.2241  -30.3991   28.7547 C   0  0  0  0  0  0  0  0  0  0  0  0
  -13.2227  -28.9040   29.0312 C   0  0  0  0  0  0  0  0  0  0  0  0
  -12.1550  -28.0762   28.3106 C   0  0  0  0  0  0  0  0  0  0  0  0
  -12.4515  -26.6365   27.9030 C   0  0  0  0  0  0  0  0  0  0  0  0
  -13.8241  -26.5355   27.1816 C   0  0  0  0  0  0  0  0  0  0  0  0
  -11.3138  -26.0827   26.9085 C   0  0  0  0  0  0  0  0  0  0  0  0
  -10.4604  -25.0071   27.4973 N   0  0  0  0  0  0  0  0  0  0  0  0
  -11.0905  -23.7244   27.6510 C   0  0  0  0  0  0  0  0  0  0  0  0
  -10.4804  -22.7551   28.3507 N   0  0  0  0  0  0  0  0  0  0  0  0
  -11.2095  -22.0788   29.2788 C   0  0  0  0  0  0  0  0  0  0  0  0
  -12.4330  -22.4979   29.6803 C   0  0  0  0  0  0  0  0  0  0  0  0
  -13.0650  -23.3160   28.7802 C   0  0  0  0  0  0  0  0  0  0  0  0
  -12.4473  -23.6402   27.5833 C   0  0  0  0  0  0  0  0  0  0  0  0
  -13.1256  -24.1922   26.5745 F   0  0  0  0  0  0  0  0  0  0  0  0
   -9.9990  -25.4450   28.8491 C   0  0  0  0  0  0  0  0  0  0  0  0
  -11.1877  -25.5845   29.8191 C   0  0  0  0  0  0  0  0  0  0  0  0
  -11.1211  -25.3769   31.0266 O   0  0  0  0  0  0  0  0  0  0  0  0
  -12.3925  -25.9507   29.2226 N   0  0  0  0  0  0  0  0  0  0  0  0
  -15.3864  -33.2611   29.4909 C   0  0  0  0  0  0  0  0  0  0  0  0
  -14.6419  -33.0097   30.8088 C   0  0  0  0  0  0  0  0  0  0  0  0
  -15.7380  -32.7848   31.8270 C   0  0  0  0  0  0  0  0  0  0  0  0
  -16.8869  -33.5554   31.3248 N   0  0  0  0  0  0  0  0  0  0  0  0
  -16.7526  -35.0265   31.4768 C   0  0  0  0  0  0  0  0  0  0  0  0
  -16.4305  -35.4463   32.8661 C   0  0  0  0  0  0  0  0  0  0  0  0
  -17.0730  -35.0966   34.0331 C   0  0  0  0  0  0  0  0  0  0  0  0
  -16.4729  -35.6875   35.0949 O   0  0  0  0  0  0  0  0  0  0  0  0
  -15.4217  -36.4712   34.6493 N   0  0  0  0  0  0  0  0  0  0  0  0
  -15.4130  -36.3181   33.3242 C   0  0  0  0  0  0  0  0  0  0  0  0
  -14.1440  -37.1814   32.2312 Br  0  0  0  0  0  0  0  0  0  0  0  0
  -16.8583  -33.1926   29.8785 C   0  0  0  0  0  0  0  0  0  0  0  0
  -17.5817  -30.7140   26.0698 H   0  0  0  0  0  0  0  0  0  0  0  0
  -15.8614  -30.2901   25.9699 H   0  0  0  0  0  0  0  0  0  0  0  0
  -16.7940  -30.0049   27.4562 H   0  0  0  0  0  0  0  0  0  0  0  0
  -17.4363  -32.9479   25.5837 H   0  0  0  0  0  0  0  0  0  0  0  0
  -16.3038  -34.0168   26.3880 H   0  0  0  0  0  0  0  0  0  0  0  0
  -15.6992  -32.8204   25.2204 H   0  0  0  0  0  0  0  0  0  0  0  0
  -12.7471  -30.9171   29.5888 H   0  0  0  0  0  0  0  0  0  0  0  0
  -12.6799  -30.6483   27.8411 H   0  0  0  0  0  0  0  0  0  0  0  0
  -14.2178  -28.5344   28.8030 H   0  0  0  0  0  0  0  0  0  0  0  0
  -13.0519  -28.7961   30.1076 H   0  0  0  0  0  0  0  0  0  0  0  0
  -11.7156  -28.6434   27.5108 H   0  0  0  0  0  0  0  0  0  0  0  0
  -11.3540  -27.9322   29.0246 H   0  0  0  0  0  0  0  0  0  0  0  0
  -13.7061  -26.4910   26.0932 H   0  0  0  0  0  0  0  0  0  0  0  0
  -14.3927  -25.6528   27.4794 H   0  0  0  0  0  0  0  0  0  0  0  0
  -14.4968  -27.3772   27.3401 H   0  0  0  0  0  0  0  0  0  0  0  0
  -11.7091  -25.7582   25.9386 H   0  0  0  0  0  0  0  0  0  0  0  0
  -10.6421  -26.9043   26.6378 H   0  0  0  0  0  0  0  0  0  0  0  0
  -10.7179  -21.2707   29.7996 H   0  0  0  0  0  0  0  0  0  0  0  0
  -12.9049  -22.1635   30.5931 H   0  0  0  0  0  0  0  0  0  0  0  0
  -14.0502  -23.6908   29.0120 H   0  0  0  0  0  0  0  0  0  0  0  0
   -9.5066  -26.4172   28.7679 H   0  0  0  0  0  0  0  0  0  0  0  0
   -9.2636  -24.7623   29.2649 H   0  0  0  0  0  0  0  0  0  0  0  0
  -13.1277  -26.0620   29.9135 H   0  0  0  0  0  0  0  0  0  0  0  0
  -15.1587  -34.2780   29.1449 H   0  0  0  0  0  0  0  0  0  0  0  0
  -14.0841  -33.9079   31.0957 H   0  0  0  0  0  0  0  0  0  0  0  0
  -13.9403  -32.1777   30.8089 H   0  0  0  0  0  0  0  0  0  0  0  0
  -16.0099  -31.7210   31.8539 H   0  0  0  0  0  0  0  0  0  0  0  0
  -15.4339  -33.0389   32.8421 H   0  0  0  0  0  0  0  0  0  0  0  0
  -17.7141  -35.4791   31.2015 H   0  0  0  0  0  0  0  0  0  0  0  0
  -16.0169  -35.4483   30.7861 H   0  0  0  0  0  0  0  0  0  0  0  0
  -17.9173  -34.4628   34.2634 H   0  0  0  0  0  0  0  0  0  0  0  0
  -17.4859  -33.8553   29.2717 H   0  0  0  0  0  0  0  0  0  0  0  0
  -17.2623  -32.1785   29.7664 H   0  0  0  0  0  0  0  0  0  0  0  0
  1  2  1  0
  2  3  1  0
  2  4  1  0
  4  5  2  0
  4  6  2  0
  6  7  1  0
  7  8  1  0
  8  9  1  0
  9 10  1  0
 10 11  1  0
 10 12  1  0
 12 13  1  0
 13 14  1  0
 14 15  2  0
 15 16  1  0
 16 17  2  0
 17 18  1  0
 18 19  2  0
 19 20  1  0
 13 21  1  0
 21 22  1  0
 22 23  2  0
 22 24  1  0
  4 25  1  0
 25 26  1  0
 26 27  1  0
 27 28  1  0
 28 29  1  0
 29 30  1  0
 30 31  2  0
 31 32  1  0
 32 33  1  0
 33 34  2  0
 34 35  1  0
 28 36  1  0
 24 10  1  0
 36 25  1  0
 19 14  1  0
 34 30  1  0
  1 37  1  0
  1 38  1  0
  1 39  1  0
  3 40  1  0
  3 41  1  0
  3 42  1  0
  7 43  1  0
  7 44  1  0
  8 45  1  0
  8 46  1  0
  9 47  1  0
  9 48  1  0
 11 49  1  0
 11 50  1  0
 11 51  1  0
 12 52  1  0
 12 53  1  0
 16 54  1  0
 17 55  1  0
 18 56  1  0
 21 57  1  0
 21 58  1  0
 24 59  1  0
 25 60  1  0
 26 61  1  0
 26 62  1  0
 27 63  1  0
 27 64  1  0
 29 65  1  0
 29 66  1  0
 31 67  1  0
 36 68  1  0
 36 69  1  0
M  END
>  <Energy>  (177) 
91.522844933162105

>  <compound_id>  (177) 
3971

>  <target_id>  (177) 
1

>  <reference_id>  (177) 
39

>  <inspiration_ids>  (177) 
[138, 39]

>  <energy_score>  (177) 
-19.20198036751367

>  <distance_score>  (177) 
2.2902476250485497

>  <path>  (177) 
/opt/xchem-fragalysis-2/maxwin/BulkDock/SCRATCH/505735/C3971-P39/C3971-P39.minimised.mol

>  <scratch_subdir>  (177) 
/opt/xchem-fragalysis-2/maxwin/BulkDock/SCRATCH/505735/C3971-P39

>  <fragmenstein_runtime>  (177) 
13.629878520965576

>  <fragmenstein_outcome>  (177) 
too moved

>  <fragmenstein_mode>  (177) 
expansion

>  <fragmenstein_error>  (177) 


$$$$
C3972-P138
     RDKit          3D

 60 62  0  0  0  0  0  0  0  0999 V2000
  -15.6739  -30.7078   26.2322 C   0  0  0  0  0  0  0  0  0  0  0  0
  -14.4537  -31.3610   26.6639 N   0  0  0  0  0  0  0  0  0  0  0  0
  -14.0997  -32.4933   25.8276 C   0  0  0  0  0  0  0  0  0  0  0  0
  -13.3195  -30.5766   27.6778 S   0  0  0  0  0  0  0  0  0  0  0  0
  -12.0628  -31.2195   27.3428 O   0  0  0  0  0  0  0  0  0  0  0  0
  -13.6436  -29.0758   27.4600 N   0  0  0  0  0  0  0  0  0  0  0  0
  -13.1623  -28.3479   26.2487 C   0  0  0  0  0  0  0  0  0  0  0  0
  -14.1105  -27.2213   25.7070 C   0  0  0  0  0  0  0  0  0  0  0  0
  -13.7903  -25.7778   26.1189 C   0  0  0  0  0  0  0  0  0  0  0  0
  -14.3355  -25.4087   27.3464 C   0  0  0  0  0  0  0  0  0  0  0  0
  -13.5225  -24.7283   28.2291 C   0  0  0  0  0  0  0  0  0  0  0  0
  -12.1716  -24.5702   27.9066 C   0  0  0  0  0  0  0  0  0  0  0  0
  -11.6698  -24.9874   26.6687 C   0  0  0  0  0  0  0  0  0  0  0  0
  -10.4272  -24.7016   26.1920 O   0  0  0  0  0  0  0  0  0  0  0  0
   -9.4159  -25.3926   26.8697 C   0  0  0  0  0  0  0  0  0  0  0  0
   -9.4480  -24.9965   28.1395 F   0  0  0  0  0  0  0  0  0  0  0  0
   -9.6655  -26.7264   26.7911 F   0  0  0  0  0  0  0  0  0  0  0  0
  -12.6086  -25.1431   25.6886 C   0  0  0  0  0  0  0  0  0  0  0  0
  -12.7239  -23.3423   25.1140 S   0  0  0  0  0  0  0  0  0  0  0  0
  -14.3479  -23.2631   24.6216 N   0  0  0  0  0  0  0  0  0  0  0  0
  -12.0322  -23.0597   23.8800 O   0  0  0  0  0  0  0  0  0  0  0  0
  -12.3939  -22.5722   26.2893 O   0  0  0  0  0  0  0  0  0  0  0  0
  -13.8187  -31.0699   29.3320 C   0  0  0  0  0  0  0  0  0  0  0  0
  -12.6997  -31.1121   30.3607 C   0  0  0  0  0  0  0  0  0  0  0  0
  -12.9082  -32.4090   31.1494 C   0  0  0  0  0  0  0  0  0  0  0  0
  -14.2437  -32.8922   30.7698 N   0  0  0  0  0  0  0  0  0  0  0  0
  -14.4102  -34.3514   30.8852 C   0  0  0  0  0  0  0  0  0  0  0  0
  -14.3733  -34.8172   32.2930 C   0  0  0  0  0  0  0  0  0  0  0  0
  -14.8602  -34.1965   33.4195 C   0  0  0  0  0  0  0  0  0  0  0  0
  -14.6027  -34.9442   34.5186 O   0  0  0  0  0  0  0  0  0  0  0  0
  -13.9733  -36.1173   34.1322 N   0  0  0  0  0  0  0  0  0  0  0  0
  -13.8818  -36.0388   32.8046 C   0  0  0  0  0  0  0  0  0  0  0  0
  -13.1715  -37.4201   31.7442 Br  0  0  0  0  0  0  0  0  0  0  0  0
  -14.3795  -32.4826   29.3623 C   0  0  0  0  0  0  0  0  0  0  0  0
  -15.5030  -30.0693   25.3618 H   0  0  0  0  0  0  0  0  0  0  0  0
  -16.1032  -30.0961   27.0331 H   0  0  0  0  0  0  0  0  0  0  0  0
  -16.4491  -31.4367   25.9696 H   0  0  0  0  0  0  0  0  0  0  0  0
  -13.6776  -32.1629   24.8794 H   0  0  0  0  0  0  0  0  0  0  0  0
  -14.9693  -33.1254   25.6157 H   0  0  0  0  0  0  0  0  0  0  0  0
  -13.3678  -33.1439   26.3168 H   0  0  0  0  0  0  0  0  0  0  0  0
  -12.1432  -27.9861   26.4143 H   0  0  0  0  0  0  0  0  0  0  0  0
  -13.1330  -29.0759   25.4387 H   0  0  0  0  0  0  0  0  0  0  0  0
  -15.1550  -27.4541   25.9520 H   0  0  0  0  0  0  0  0  0  0  0  0
  -14.0613  -27.2344   24.6130 H   0  0  0  0  0  0  0  0  0  0  0  0
  -15.2873  -25.7993   27.6984 H   0  0  0  0  0  0  0  0  0  0  0  0
  -13.8892  -24.4174   29.2046 H   0  0  0  0  0  0  0  0  0  0  0  0
  -11.5366  -24.0177   28.5971 H   0  0  0  0  0  0  0  0  0  0  0  0
   -8.4384  -25.1761   26.4313 H   0  0  0  0  0  0  0  0  0  0  0  0
  -14.2857  -23.0555   23.6263 H   0  0  0  0  0  0  0  0  0  0  0  0
  -14.6621  -22.4122   25.1102 H   0  0  0  0  0  0  0  0  0  0  0  0
  -14.5951  -30.3645   29.6549 H   0  0  0  0  0  0  0  0  0  0  0  0
  -11.7066  -31.1004   29.9087 H   0  0  0  0  0  0  0  0  0  0  0  0
  -12.7679  -30.2384   31.0144 H   0  0  0  0  0  0  0  0  0  0  0  0
  -12.8326  -32.2292   32.2262 H   0  0  0  0  0  0  0  0  0  0  0  0
  -12.1280  -33.1256   30.8651 H   0  0  0  0  0  0  0  0  0  0  0  0
  -15.3874  -34.6330   30.4712 H   0  0  0  0  0  0  0  0  0  0  0  0
  -13.6490  -34.8655   30.2861 H   0  0  0  0  0  0  0  0  0  0  0  0
  -15.3744  -33.2619   33.5839 H   0  0  0  0  0  0  0  0  0  0  0  0
  -15.4281  -32.5085   29.0470 H   0  0  0  0  0  0  0  0  0  0  0  0
  -13.8025  -33.1502   28.7098 H   0  0  0  0  0  0  0  0  0  0  0  0
  1  2  1  0
  2  3  1  0
  2  4  1  0
  4  5  2  0
  4  6  2  0
  6  7  1  0
  7  8  1  0
  8  9  1  0
  9 10  2  0
 10 11  1  0
 11 12  2  0
 12 13  1  0
 13 14  1  0
 14 15  1  0
 15 16  1  0
 15 17  1  0
 13 18  2  0
 18 19  1  0
 19 20  1  0
 19 21  2  0
 19 22  2  0
  4 23  1  0
 23 24  1  0
 24 25  1  0
 25 26  1  0
 26 27  1  0
 27 28  1  0
 28 29  2  0
 29 30  1  0
 30 31  1  0
 31 32  2  0
 32 33  1  0
 26 34  1  0
 18  9  1  0
 34 23  1  0
 32 28  1  0
  1 35  1  0
  1 36  1  0
  1 37  1  0
  3 38  1  0
  3 39  1  0
  3 40  1  0
  7 41  1  0
  7 42  1  0
  8 43  1  0
  8 44  1  0
 10 45  1  0
 11 46  1  0
 12 47  1  0
 15 48  1  0
 20 49  1  0
 20 50  1  0
 23 51  1  0
 24 52  1  0
 24 53  1  0
 25 54  1  0
 25 55  1  0
 27 56  1  0
 27 57  1  0
 29 58  1  0
 34 59  1  0
 34 60  1  0
M  END
>  <Energy>  (178) 
-30.481014158204289

>  <compound_id>  (178) 
3972

>  <target_id>  (178) 
1

>  <reference_id>  (178) 
138

>  <inspiration_ids>  (178) 
[138, 42]

>  <energy_score>  (178) 
-0.42866012333882964

>  <distance_score>  (178) 
1.832278987083354

>  <path>  (178) 
/opt/xchem-fragalysis-2/maxwin/BulkDock/SCRATCH/505735/C3972-P138/C3972-P138.minimised.mol

>  <scratch_subdir>  (178) 
/opt/xchem-fragalysis-2/maxwin/BulkDock/SCRATCH/505735/C3972-P138

>  <fragmenstein_runtime>  (178) 
10.972491979598999

>  <fragmenstein_outcome>  (178) 
too moved

>  <fragmenstein_mode>  (178) 
expansion

>  <fragmenstein_error>  (178) 


$$$$
C3972-P42
     RDKit          3D

 60 62  0  0  0  0  0  0  0  0999 V2000
  -15.9974  -30.9651   26.4701 C   0  0  0  0  0  0  0  0  0  0  0  0
  -14.5656  -31.1370   26.6763 N   0  0  0  0  0  0  0  0  0  0  0  0
  -14.0950  -32.3890   26.0819 C   0  0  0  0  0  0  0  0  0  0  0  0
  -13.8221  -30.4965   28.0766 S   0  0  0  0  0  0  0  0  0  0  0  0
  -12.6151  -31.2506   28.2025 O   0  0  0  0  0  0  0  0  0  0  0  0
  -13.8200  -28.9772   27.8083 N   0  0  0  0  0  0  0  0  0  0  0  0
  -12.5768  -28.1326   27.9405 C   0  0  0  0  0  0  0  0  0  0  0  0
  -11.8745  -27.4759   26.6657 C   0  0  0  0  0  0  0  0  0  0  0  0
  -12.4185  -26.1428   25.9877 C   0  0  0  0  0  0  0  0  0  0  0  0
  -13.6635  -26.0406   25.3898 C   0  0  0  0  0  0  0  0  0  0  0  0
  -14.7258  -25.6863   26.1905 C   0  0  0  0  0  0  0  0  0  0  0  0
  -14.4124  -25.3380   27.4891 C   0  0  0  0  0  0  0  0  0  0  0  0
  -13.1077  -24.9531   27.8096 C   0  0  0  0  0  0  0  0  0  0  0  0
  -12.7440  -24.6148   29.0674 O   0  0  0  0  0  0  0  0  0  0  0  0
  -11.3626  -24.8275   29.4541 C   0  0  0  0  0  0  0  0  0  0  0  0
  -11.3136  -25.1459   30.7640 F   0  0  0  0  0  0  0  0  0  0  0  0
  -10.8445  -25.9121   28.8334 F   0  0  0  0  0  0  0  0  0  0  0  0
  -12.2131  -25.0923   26.8128 C   0  0  0  0  0  0  0  0  0  0  0  0
  -11.1877  -23.8192   26.3509 S   0  0  0  0  0  0  0  0  0  0  0  0
  -12.0476  -22.4397   26.7860 N   0  0  0  0  0  0  0  0  0  0  0  0
  -11.1027  -23.8020   24.9130 O   0  0  0  0  0  0  0  0  0  0  0  0
  -10.0374  -23.9176   27.2147 O   0  0  0  0  0  0  0  0  0  0  0  0
  -14.8838  -30.9580   29.4304 C   0  0  0  0  0  0  0  0  0  0  0  0
  -14.2093  -30.8418   30.7791 C   0  0  0  0  0  0  0  0  0  0  0  0
  -14.3761  -32.2078   31.4303 C   0  0  0  0  0  0  0  0  0  0  0  0
  -15.4174  -32.9427   30.7143 N   0  0  0  0  0  0  0  0  0  0  0  0
  -15.2005  -34.4205   30.6776 C   0  0  0  0  0  0  0  0  0  0  0  0
  -15.4766  -35.1292   31.9578 C   0  0  0  0  0  0  0  0  0  0  0  0
  -16.2863  -34.7580   33.0097 C   0  0  0  0  0  0  0  0  0  0  0  0
  -16.1741  -35.6474   34.0287 O   0  0  0  0  0  0  0  0  0  0  0  0
  -15.3346  -36.6810   33.6475 N   0  0  0  0  0  0  0  0  0  0  0  0
  -14.9472  -36.3718   32.4085 C   0  0  0  0  0  0  0  0  0  0  0  0
  -13.7298  -37.4528   31.4575 Br  0  0  0  0  0  0  0  0  0  0  0  0
  -15.3177  -32.4224   29.3443 C   0  0  0  0  0  0  0  0  0  0  0  0
  -16.2690  -31.0175   25.4109 H   0  0  0  0  0  0  0  0  0  0  0  0
  -16.3396  -29.9887   26.8293 H   0  0  0  0  0  0  0  0  0  0  0  0
  -16.5853  -31.7327   26.9765 H   0  0  0  0  0  0  0  0  0  0  0  0
  -14.5708  -32.5894   25.1153 H   0  0  0  0  0  0  0  0  0  0  0  0
  -14.2911  -33.2536   26.7193 H   0  0  0  0  0  0  0  0  0  0  0  0
  -13.0198  -32.3352   25.8843 H   0  0  0  0  0  0  0  0  0  0  0  0
  -12.8225  -27.3564   28.6629 H   0  0  0  0  0  0  0  0  0  0  0  0
  -11.8196  -28.7112   28.4499 H   0  0  0  0  0  0  0  0  0  0  0  0
  -11.5466  -28.2137   25.9297 H   0  0  0  0  0  0  0  0  0  0  0  0
  -10.8825  -27.1673   27.0320 H   0  0  0  0  0  0  0  0  0  0  0  0
  -13.8891  -26.5052   24.4429 H   0  0  0  0  0  0  0  0  0  0  0  0
  -15.7469  -25.8736   25.8757 H   0  0  0  0  0  0  0  0  0  0  0  0
  -15.2181  -25.4259   28.2036 H   0  0  0  0  0  0  0  0  0  0  0  0
  -10.7770  -23.9249   29.3126 H   0  0  0  0  0  0  0  0  0  0  0  0
  -11.5448  -21.8689   27.4734 H   0  0  0  0  0  0  0  0  0  0  0  0
  -12.2895  -21.9056   25.9476 H   0  0  0  0  0  0  0  0  0  0  0  0
  -15.7618  -30.3023   29.3927 H   0  0  0  0  0  0  0  0  0  0  0  0
  -13.1545  -30.5522   30.7320 H   0  0  0  0  0  0  0  0  0  0  0  0
  -14.7274  -30.0775   31.3700 H   0  0  0  0  0  0  0  0  0  0  0  0
  -14.7037  -32.0592   32.4587 H   0  0  0  0  0  0  0  0  0  0  0  0
  -13.4237  -32.7316   31.3966 H   0  0  0  0  0  0  0  0  0  0  0  0
  -15.8873  -34.8481   29.9341 H   0  0  0  0  0  0  0  0  0  0  0  0
  -14.1851  -34.6476   30.3371 H   0  0  0  0  0  0  0  0  0  0  0  0
  -16.9315  -33.9123   33.1974 H   0  0  0  0  0  0  0  0  0  0  0  0
  -16.2972  -32.5220   28.8707 H   0  0  0  0  0  0  0  0  0  0  0  0
  -14.6078  -33.0152   28.7669 H   0  0  0  0  0  0  0  0  0  0  0  0
  1  2  1  0
  2  3  1  0
  2  4  1  0
  4  5  2  0
  4  6  2  0
  6  7  1  0
  7  8  1  0
  8  9  1  0
  9 10  2  0
 10 11  1  0
 11 12  2  0
 12 13  1  0
 13 14  1  0
 14 15  1  0
 15 16  1  0
 15 17  1  0
 13 18  2  0
 18 19  1  0
 19 20  1  0
 19 21  2  0
 19 22  2  0
  4 23  1  0
 23 24  1  0
 24 25  1  0
 25 26  1  0
 26 27  1  0
 27 28  1  0
 28 29  2  0
 29 30  1  0
 30 31  1  0
 31 32  2  0
 32 33  1  0
 26 34  1  0
 18  9  1  0
 34 23  1  0
 32 28  1  0
  1 35  1  0
  1 36  1  0
  1 37  1  0
  3 38  1  0
  3 39  1  0
  3 40  1  0
  7 41  1  0
  7 42  1  0
  8 43  1  0
  8 44  1  0
 10 45  1  0
 11 46  1  0
 12 47  1  0
 15 48  1  0
 20 49  1  0
 20 50  1  0
 23 51  1  0
 24 52  1  0
 24 53  1  0
 25 54  1  0
 25 55  1  0
 27 56  1  0
 27 57  1  0
 29 58  1  0
 34 59  1  0
 34 60  1  0
M  END
>  <Energy>  (179) 
-18.902246102558443

>  <compound_id>  (179) 
3972

>  <target_id>  (179) 
1

>  <reference_id>  (179) 
42

>  <inspiration_ids>  (179) 
[138, 42]

>  <energy_score>  (179) 
11.15010793231346

>  <distance_score>  (179) 
2.033757939141525

>  <path>  (179) 
/opt/xchem-fragalysis-2/maxwin/BulkDock/SCRATCH/505735/C3972-P42/C3972-P42.minimised.mol

>  <scratch_subdir>  (179) 
/opt/xchem-fragalysis-2/maxwin/BulkDock/SCRATCH/505735/C3972-P42

>  <fragmenstein_runtime>  (179) 
9.798281908035278

>  <fragmenstein_outcome>  (179) 
too moved

>  <fragmenstein_mode>  (179) 
expansion

>  <fragmenstein_error>  (179) 


$$$$
C3973-P138
     RDKit          3D

 54 57  0  0  0  0  0  0  0  0999 V2000
  -15.5272  -31.0880   26.9033 C   0  0  0  0  0  0  0  0  0  0  0  0
  -14.3215  -30.3112   27.2210 N   0  0  0  0  0  0  0  0  0  0  0  0
  -13.8914  -29.4588   26.1182 C   0  0  0  0  0  0  0  0  0  0  0  0
  -14.8484  -28.3891   25.7310 N   0  0  0  0  0  0  0  0  0  0  0  0
  -14.8487  -27.0566   26.4647 N   0  0  0  0  0  0  0  0  0  0  0  0
  -13.6823  -26.0607   26.3910 S   0  0  0  0  0  0  0  0  0  0  0  0
  -14.3917  -24.9929   25.3267 N   0  0  0  0  0  0  0  0  0  0  0  0
  -12.3928  -26.3242   25.7984 O   0  0  0  0  0  0  0  0  0  0  0  0
  -13.5351  -25.2191   27.9187 C   0  0  0  0  0  0  0  0  0  0  0  0
  -14.2468  -25.6643   29.0448 C   0  0  0  0  0  0  0  0  0  0  0  0
  -14.1171  -25.0302   30.2774 C   0  0  0  0  0  0  0  0  0  0  0  0
  -13.3044  -23.9030   30.3512 C   0  0  0  0  0  0  0  0  0  0  0  0
  -13.0180  -23.2243   31.5061 N   0  0  0  0  0  0  0  0  0  0  0  0
  -12.3264  -22.1554   31.2105 C   0  0  0  0  0  0  0  0  0  0  0  0
  -12.0858  -21.8730   29.5363 S   0  0  0  0  0  0  0  0  0  0  0  0
  -12.7194  -23.4079   29.1857 C   0  0  0  0  0  0  0  0  0  0  0  0
  -12.7565  -24.0698   27.9582 C   0  0  0  0  0  0  0  0  0  0  0  0
  -13.0373  -31.0996   27.9818 S   0  0  0  0  0  0  0  0  0  0  0  0
  -12.7594  -32.3267   27.2664 O   0  0  0  0  0  0  0  0  0  0  0  0
  -11.9742  -30.1310   28.1277 O   0  0  0  0  0  0  0  0  0  0  0  0
  -13.7185  -31.4288   29.5950 C   0  0  0  0  0  0  0  0  0  0  0  0
  -12.6367  -31.6521   30.6389 C   0  0  0  0  0  0  0  0  0  0  0  0
  -13.0140  -32.9444   31.3330 C   0  0  0  0  0  0  0  0  0  0  0  0
  -14.4322  -33.1436   31.0195 N   0  0  0  0  0  0  0  0  0  0  0  0
  -14.8705  -34.5398   31.1484 C   0  0  0  0  0  0  0  0  0  0  0  0
  -14.6210  -35.0369   32.5213 C   0  0  0  0  0  0  0  0  0  0  0  0
  -14.9937  -34.4567   33.7116 C   0  0  0  0  0  0  0  0  0  0  0  0
  -14.5038  -35.1717   34.7510 O   0  0  0  0  0  0  0  0  0  0  0  0
  -13.8246  -36.2777   34.2635 N   0  0  0  0  0  0  0  0  0  0  0  0
  -13.9271  -36.1915   32.9374 C   0  0  0  0  0  0  0  0  0  0  0  0
  -13.1822  -37.4580   31.7640 Br  0  0  0  0  0  0  0  0  0  0  0  0
  -14.5735  -32.6783   29.6353 C   0  0  0  0  0  0  0  0  0  0  0  0
  -16.0340  -30.7303   26.0017 H   0  0  0  0  0  0  0  0  0  0  0  0
  -16.2379  -31.0024   27.7299 H   0  0  0  0  0  0  0  0  0  0  0  0
  -15.2981  -32.1441   26.7357 H   0  0  0  0  0  0  0  0  0  0  0  0
  -13.7317  -30.1275   25.2737 H   0  0  0  0  0  0  0  0  0  0  0  0
  -12.9346  -28.9713   26.3181 H   0  0  0  0  0  0  0  0  0  0  0  0
  -14.7136  -28.1846   24.7441 H   0  0  0  0  0  0  0  0  0  0  0  0
  -14.1543  -25.3100   24.4003 H   0  0  0  0  0  0  0  0  0  0  0  0
  -15.3842  -25.1691   25.4425 H   0  0  0  0  0  0  0  0  0  0  0  0
  -14.8779  -26.5497   28.9856 H   0  0  0  0  0  0  0  0  0  0  0  0
  -14.6092  -25.4129   31.1659 H   0  0  0  0  0  0  0  0  0  0  0  0
  -11.9435  -21.4899   31.9757 H   0  0  0  0  0  0  0  0  0  0  0  0
  -12.2679  -23.6658   27.0765 H   0  0  0  0  0  0  0  0  0  0  0  0
  -14.2964  -30.5418   29.8841 H   0  0  0  0  0  0  0  0  0  0  0  0
  -12.6260  -30.8180   31.3460 H   0  0  0  0  0  0  0  0  0  0  0  0
  -11.6360  -31.7256   30.2147 H   0  0  0  0  0  0  0  0  0  0  0  0
  -12.3943  -33.7600   30.9394 H   0  0  0  0  0  0  0  0  0  0  0  0
  -12.8485  -32.8554   32.4094 H   0  0  0  0  0  0  0  0  0  0  0  0
  -14.3723  -35.1706   30.4038 H   0  0  0  0  0  0  0  0  0  0  0  0
  -15.9475  -34.5996   30.9469 H   0  0  0  0  0  0  0  0  0  0  0  0
  -15.5464  -33.5632   33.9617 H   0  0  0  0  0  0  0  0  0  0  0  0
  -15.6219  -32.4615   29.4117 H   0  0  0  0  0  0  0  0  0  0  0  0
  -14.2246  -33.4377   28.9259 H   0  0  0  0  0  0  0  0  0  0  0  0
  1  2  1  0
  2  3  1  0
  3  4  1  0
  4  5  1  0
  5  6  2  0
  6  7  1  0
  6  8  2  0
  6  9  1  0
  9 10  2  0
 10 11  1  0
 11 12  2  0
 12 13  1  0
 13 14  2  0
 14 15  1  0
 15 16  1  0
 16 17  2  0
  2 18  1  0
 18 19  2  0
 18 20  2  0
 18 21  1  0
 21 22  1  0
 22 23  1  0
 23 24  1  0
 24 25  1  0
 25 26  1  0
 26 27  2  0
 27 28  1  0
 28 29  1  0
 29 30  2  0
 30 31  1  0
 24 32  1  0
 17  9  1  0
 32 21  1  0
 16 12  1  0
 30 26  1  0
  1 33  1  0
  1 34  1  0
  1 35  1  0
  3 36  1  0
  3 37  1  0
  4 38  1  0
  7 39  1  0
  7 40  1  0
 10 41  1  0
 11 42  1  0
 14 43  1  0
 17 44  1  0
 21 45  1  0
 22 46  1  0
 22 47  1  0
 23 48  1  0
 23 49  1  0
 25 50  1  0
 25 51  1  0
 27 52  1  0
 32 53  1  0
 32 54  1  0
M  END
>  <Energy>  (180) 
-107.26651718244534

>  <compound_id>  (180) 
3973

>  <target_id>  (180) 
1

>  <reference_id>  (180) 
138

>  <inspiration_ids>  (180) 
[138, 47]

>  <energy_score>  (180) 
-128.7288362691148

>  <distance_score>  (180) 
1.8468501589002029

>  <path>  (180) 
/opt/xchem-fragalysis-2/maxwin/BulkDock/SCRATCH/505735/C3973-P138/C3973-P138.minimised.mol

>  <scratch_subdir>  (180) 
/opt/xchem-fragalysis-2/maxwin/BulkDock/SCRATCH/505735/C3973-P138

>  <fragmenstein_runtime>  (180) 
7.258387565612793

>  <fragmenstein_outcome>  (180) 
too moved

>  <fragmenstein_mode>  (180) 
expansion

>  <fragmenstein_error>  (180) 


$$$$
C3973-P47
     RDKit          3D

 54 57  0  0  0  0  0  0  0  0999 V2000
  -15.4661  -30.6988   27.7307 C   0  0  0  0  0  0  0  0  0  0  0  0
  -14.2248  -31.4171   28.0878 N   0  0  0  0  0  0  0  0  0  0  0  0
  -13.0786  -30.8359   27.4345 C   0  0  0  0  0  0  0  0  0  0  0  0
  -12.7329  -29.3969   27.8324 N   0  0  0  0  0  0  0  0  0  0  0  0
  -13.5503  -28.0547   27.4167 N   0  0  0  0  0  0  0  0  0  0  0  0
  -12.8238  -26.7345   26.9735 S   0  0  0  0  0  0  0  0  0  0  0  0
  -14.2350  -25.8858   26.5609 N   0  0  0  0  0  0  0  0  0  0  0  0
  -11.9992  -26.4706   25.8173 O   0  0  0  0  0  0  0  0  0  0  0  0
  -12.1202  -25.8555   28.3375 C   0  0  0  0  0  0  0  0  0  0  0  0
  -11.6703  -26.5025   29.4896 C   0  0  0  0  0  0  0  0  0  0  0  0
  -11.3201  -25.7818   30.6311 C   0  0  0  0  0  0  0  0  0  0  0  0
  -11.4624  -24.3949   30.6175 C   0  0  0  0  0  0  0  0  0  0  0  0
  -11.2651  -23.5632   31.6970 N   0  0  0  0  0  0  0  0  0  0  0  0
  -11.5298  -22.3304   31.3373 C   0  0  0  0  0  0  0  0  0  0  0  0
  -11.8791  -22.0823   29.6840 S   0  0  0  0  0  0  0  0  0  0  0  0
  -11.8339  -23.7680   29.4281 C   0  0  0  0  0  0  0  0  0  0  0  0
  -12.1250  -24.4666   28.2565 C   0  0  0  0  0  0  0  0  0  0  0  0
  -13.7740  -31.5685   29.6807 S   0  0  0  0  0  0  0  0  0  0  0  0
  -12.6214  -32.4259   29.7142 O   0  0  0  0  0  0  0  0  0  0  0  0
  -13.6517  -30.2148   30.1585 O   0  0  0  0  0  0  0  0  0  0  0  0
  -15.1235  -32.3620   30.4337 C   0  0  0  0  0  0  0  0  0  0  0  0
  -15.2319  -32.0280   31.9024 C   0  0  0  0  0  0  0  0  0  0  0  0
  -16.0121  -33.1990   32.4690 C   0  0  0  0  0  0  0  0  0  0  0  0
  -15.9839  -34.1928   31.4105 N   0  0  0  0  0  0  0  0  0  0  0  0
  -16.2252  -35.5917   31.6695 C   0  0  0  0  0  0  0  0  0  0  0  0
  -15.5128  -36.1572   32.8376 C   0  0  0  0  0  0  0  0  0  0  0  0
  -15.8437  -35.9912   34.1670 C   0  0  0  0  0  0  0  0  0  0  0  0
  -15.0091  -36.7067   34.9554 O   0  0  0  0  0  0  0  0  0  0  0  0
  -14.1233  -37.4098   34.1574 N   0  0  0  0  0  0  0  0  0  0  0  0
  -14.4432  -37.0783   32.9040 C   0  0  0  0  0  0  0  0  0  0  0  0
  -13.5061  -37.7664   31.4269 Br  0  0  0  0  0  0  0  0  0  0  0  0
  -14.9802  -33.8595   30.4240 C   0  0  0  0  0  0  0  0  0  0  0  0
  -15.6334  -29.8263   28.3672 H   0  0  0  0  0  0  0  0  0  0  0  0
  -16.3172  -31.3781   27.8349 H   0  0  0  0  0  0  0  0  0  0  0  0
  -15.4545  -30.3734   26.6859 H   0  0  0  0  0  0  0  0  0  0  0  0
  -12.1738  -31.3792   27.6481 H   0  0  0  0  0  0  0  0  0  0  0  0
  -13.2019  -31.1254   26.3877 H   0  0  0  0  0  0  0  0  0  0  0  0
  -12.6458  -29.3962   28.8574 H   0  0  0  0  0  0  0  0  0  0  0  0
  -13.9332  -25.2220   25.8528 H   0  0  0  0  0  0  0  0  0  0  0  0
  -14.7620  -26.5825   26.0491 H   0  0  0  0  0  0  0  0  0  0  0  0
  -11.6097  -27.5838   29.5328 H   0  0  0  0  0  0  0  0  0  0  0  0
  -10.9891  -26.2900   31.5316 H   0  0  0  0  0  0  0  0  0  0  0  0
  -11.4811  -21.5095   32.0388 H   0  0  0  0  0  0  0  0  0  0  0  0
  -12.4276  -23.9418   27.3555 H   0  0  0  0  0  0  0  0  0  0  0  0
  -16.0493  -32.0412   29.9452 H   0  0  0  0  0  0  0  0  0  0  0  0
  -15.7423  -31.0762   32.0740 H   0  0  0  0  0  0  0  0  0  0  0  0
  -14.2433  -31.9776   32.3644 H   0  0  0  0  0  0  0  0  0  0  0  0
  -15.5603  -33.5009   33.4150 H   0  0  0  0  0  0  0  0  0  0  0  0
  -17.0487  -32.9101   32.6739 H   0  0  0  0  0  0  0  0  0  0  0  0
  -16.0372  -36.1887   30.7690 H   0  0  0  0  0  0  0  0  0  0  0  0
  -17.3023  -35.7109   31.8501 H   0  0  0  0  0  0  0  0  0  0  0  0
  -16.6082  -35.4333   34.6883 H   0  0  0  0  0  0  0  0  0  0  0  0
  -15.2031  -34.2762   29.4363 H   0  0  0  0  0  0  0  0  0  0  0  0
  -13.9924  -34.2103   30.7407 H   0  0  0  0  0  0  0  0  0  0  0  0
  1  2  1  0
  2  3  1  0
  3  4  1  0
  4  5  1  0
  5  6  2  0
  6  7  1  0
  6  8  2  0
  6  9  1  0
  9 10  2  0
 10 11  1  0
 11 12  2  0
 12 13  1  0
 13 14  2  0
 14 15  1  0
 15 16  1  0
 16 17  2  0
  2 18  1  0
 18 19  2  0
 18 20  2  0
 18 21  1  0
 21 22  1  0
 22 23  1  0
 23 24  1  0
 24 25  1  0
 25 26  1  0
 26 27  2  0
 27 28  1  0
 28 29  1  0
 29 30  2  0
 30 31  1  0
 24 32  1  0
 17  9  1  0
 32 21  1  0
 16 12  1  0
 30 26  1  0
  1 33  1  0
  1 34  1  0
  1 35  1  0
  3 36  1  0
  3 37  1  0
  4 38  1  0
  7 39  1  0
  7 40  1  0
 10 41  1  0
 11 42  1  0
 14 43  1  0
 17 44  1  0
 21 45  1  0
 22 46  1  0
 22 47  1  0
 23 48  1  0
 23 49  1  0
 25 50  1  0
 25 51  1  0
 27 52  1  0
 32 53  1  0
 32 54  1  0
M  END
>  <Energy>  (181) 
-81.42373597216212

>  <compound_id>  (181) 
3973

>  <target_id>  (181) 
1

>  <reference_id>  (181) 
47

>  <inspiration_ids>  (181) 
[138, 47]

>  <energy_score>  (181) 
-102.88605505883038

>  <distance_score>  (181) 
2.1929249161546225

>  <path>  (181) 
/opt/xchem-fragalysis-2/maxwin/BulkDock/SCRATCH/505735/C3973-P47/C3973-P47.minimised.mol

>  <scratch_subdir>  (181) 
/opt/xchem-fragalysis-2/maxwin/BulkDock/SCRATCH/505735/C3973-P47

>  <fragmenstein_runtime>  (181) 
6.6666624546051025

>  <fragmenstein_outcome>  (181) 
too moved

>  <fragmenstein_mode>  (181) 
expansion

>  <fragmenstein_error>  (181) 


$$$$
C3974-P138
     RDKit          3D

 63 65  0  0  0  0  0  0  0  0999 V2000
  -11.9509  -22.6096   28.9343 C   0  0  0  0  0  0  0  0  0  0  0  0
  -12.5457  -21.7708   29.9538 N   0  0  0  0  0  0  0  0  0  0  0  0
  -12.0955  -21.9703   31.3544 C   0  0  0  0  0  0  0  0  0  0  0  0
  -13.3039  -22.1318   32.2038 C   0  0  0  0  0  0  0  0  0  0  0  0
  -13.4758  -22.2589   33.5927 C   0  0  0  0  0  0  0  0  0  0  0  0
  -14.5122  -23.1773   33.6765 C   0  0  0  0  0  0  0  0  0  0  0  0
  -14.8128  -23.4771   32.3747 N   0  0  0  0  0  0  0  0  0  0  0  0
  -15.1390  -24.7437   31.7515 C   0  0  0  0  0  0  0  0  0  0  0  0
  -14.0809  -25.2462   30.7581 C   0  0  0  0  0  0  0  0  0  0  0  0
  -14.6230  -25.9794   29.4824 C   0  0  0  0  0  0  0  0  0  0  0  0
  -14.8011  -27.5231   29.5591 C   0  0  0  0  0  0  0  0  0  0  0  0
  -14.4679  -28.2072   28.2803 N   0  0  0  0  0  0  0  0  0  0  0  0
  -14.9591  -29.5777   28.1928 C   0  0  0  0  0  0  0  0  0  0  0  0
  -14.2330  -30.4617   27.2555 N   0  0  0  0  0  0  0  0  0  0  0  0
  -15.0783  -31.2847   26.3664 C   0  0  0  0  0  0  0  0  0  0  0  0
  -12.7626  -31.1241   27.7138 S   0  0  0  0  0  0  0  0  0  0  0  0
  -12.3481  -32.0562   26.6808 O   0  0  0  0  0  0  0  0  0  0  0  0
  -11.8644  -30.0515   28.0655 O   0  0  0  0  0  0  0  0  0  0  0  0
  -13.0090  -32.1066   29.1624 C   0  0  0  0  0  0  0  0  0  0  0  0
  -12.7680  -31.4276   30.4895 C   0  0  0  0  0  0  0  0  0  0  0  0
  -13.2339  -32.5178   31.4341 C   0  0  0  0  0  0  0  0  0  0  0  0
  -14.4315  -33.1046   30.7940 N   0  0  0  0  0  0  0  0  0  0  0  0
  -14.5470  -34.5611   30.9655 C   0  0  0  0  0  0  0  0  0  0  0  0
  -14.4785  -34.9861   32.3830 C   0  0  0  0  0  0  0  0  0  0  0  0
  -14.9516  -34.3618   33.5133 C   0  0  0  0  0  0  0  0  0  0  0  0
  -14.6022  -35.0671   34.6160 O   0  0  0  0  0  0  0  0  0  0  0  0
  -13.9277  -36.2155   34.2276 N   0  0  0  0  0  0  0  0  0  0  0  0
  -13.9023  -36.1665   32.8967 C   0  0  0  0  0  0  0  0  0  0  0  0
  -13.1576  -37.5140   31.8172 Br  0  0  0  0  0  0  0  0  0  0  0  0
  -14.3498  -32.7771   29.3480 C   0  0  0  0  0  0  0  0  0  0  0  0
  -14.4367  -22.4866   31.5756 N   0  0  0  0  0  0  0  0  0  0  0  0
  -11.7258  -23.6183   29.2832 H   0  0  0  0  0  0  0  0  0  0  0  0
  -12.6488  -22.7138   28.0973 H   0  0  0  0  0  0  0  0  0  0  0  0
  -11.0608  -22.1445   28.5175 H   0  0  0  0  0  0  0  0  0  0  0  0
  -13.5323  -22.0616   30.0140 H   0  0  0  0  0  0  0  0  0  0  0  0
  -11.5949  -22.9280   31.4889 H   0  0  0  0  0  0  0  0  0  0  0  0
  -11.4892  -21.1527   31.7236 H   0  0  0  0  0  0  0  0  0  0  0  0
  -12.7965  -21.9845   34.3876 H   0  0  0  0  0  0  0  0  0  0  0  0
  -14.9037  -23.7506   34.5016 H   0  0  0  0  0  0  0  0  0  0  0  0
  -15.3056  -25.4741   32.5490 H   0  0  0  0  0  0  0  0  0  0  0  0
  -16.1053  -24.5956   31.2613 H   0  0  0  0  0  0  0  0  0  0  0  0
  -13.4090  -25.8949   31.3006 H   0  0  0  0  0  0  0  0  0  0  0  0
  -13.4760  -24.4213   30.3884 H   0  0  0  0  0  0  0  0  0  0  0  0
  -13.9092  -25.7595   28.6761 H   0  0  0  0  0  0  0  0  0  0  0  0
  -15.5654  -25.5276   29.1557 H   0  0  0  0  0  0  0  0  0  0  0  0
  -15.8417  -27.7292   29.8366 H   0  0  0  0  0  0  0  0  0  0  0  0
  -14.1594  -27.9375   30.3440 H   0  0  0  0  0  0  0  0  0  0  0  0
  -14.7976  -27.6706   27.4822 H   0  0  0  0  0  0  0  0  0  0  0  0
  -16.0195  -29.5378   27.9140 H   0  0  0  0  0  0  0  0  0  0  0  0
  -14.9513  -30.0274   29.1872 H   0  0  0  0  0  0  0  0  0  0  0  0
  -15.8791  -30.6688   25.9431 H   0  0  0  0  0  0  0  0  0  0  0  0
  -14.5054  -31.6620   25.5148 H   0  0  0  0  0  0  0  0  0  0  0  0
  -15.5346  -32.1202   26.8996 H   0  0  0  0  0  0  0  0  0  0  0  0
  -12.2499  -32.8991   29.0656 H   0  0  0  0  0  0  0  0  0  0  0  0
  -11.7188  -31.1680   30.6524 H   0  0  0  0  0  0  0  0  0  0  0  0
  -13.3638  -30.5178   30.6083 H   0  0  0  0  0  0  0  0  0  0  0  0
  -13.4560  -32.1172   32.4256 H   0  0  0  0  0  0  0  0  0  0  0  0
  -12.4318  -33.2587   31.5261 H   0  0  0  0  0  0  0  0  0  0  0  0
  -13.7550  -35.0542   30.3888 H   0  0  0  0  0  0  0  0  0  0  0  0
  -15.5069  -34.8953   30.5520 H   0  0  0  0  0  0  0  0  0  0  0  0
  -15.4937  -33.4435   33.6849 H   0  0  0  0  0  0  0  0  0  0  0  0
  -14.4462  -33.6471   28.6870 H   0  0  0  0  0  0  0  0  0  0  0  0
  -15.1992  -32.1285   29.1336 H   0  0  0  0  0  0  0  0  0  0  0  0
  1  2  1  0
  2  3  1  0
  3  4  1  0
  4  5  1  0
  5  6  2  0
  6  7  1  0
  7  8  1  0
  8  9  1  0
  9 10  1  0
 10 11  1  0
 11 12  1  0
 12 13  1  0
 13 14  1  0
 14 15  1  0
 14 16  1  0
 16 17  2  0
 16 18  2  0
 16 19  1  0
 19 20  1  0
 20 21  1  0
 21 22  1  0
 22 23  1  0
 23 24  1  0
 24 25  2  0
 25 26  1  0
 26 27  1  0
 27 28  2  0
 28 29  1  0
 22 30  1  0
  7 31  1  0
 31  4  2  0
 30 19  1  0
 28 24  1  0
  1 32  1  0
  1 33  1  0
  1 34  1  0
  2 35  1  0
  3 36  1  0
  3 37  1  0
  5 38  1  0
  6 39  1  0
  8 40  1  0
  8 41  1  0
  9 42  1  0
  9 43  1  0
 10 44  1  0
 10 45  1  0
 11 46  1  0
 11 47  1  0
 12 48  1  0
 13 49  1  0
 13 50  1  0
 15 51  1  0
 15 52  1  0
 15 53  1  0
 19 54  1  0
 20 55  1  0
 20 56  1  0
 21 57  1  0
 21 58  1  0
 23 59  1  0
 23 60  1  0
 25 61  1  0
 30 62  1  0
 30 63  1  0
M  END
>  <Energy>  (182) 
-30.293324992192638

>  <compound_id>  (182) 
3974

>  <target_id>  (182) 
1

>  <reference_id>  (182) 
138

>  <inspiration_ids>  (182) 
[138, 49]

>  <energy_score>  (182) 
-29.75271168148734

>  <distance_score>  (182) 
2.059271395072903

>  <path>  (182) 
/opt/xchem-fragalysis-2/maxwin/BulkDock/SCRATCH/505735/C3974-P138/C3974-P138.minimised.mol

>  <scratch_subdir>  (182) 
/opt/xchem-fragalysis-2/maxwin/BulkDock/SCRATCH/505735/C3974-P138

>  <fragmenstein_runtime>  (182) 
11.28499174118042

>  <fragmenstein_outcome>  (182) 
too moved

>  <fragmenstein_mode>  (182) 
expansion

>  <fragmenstein_error>  (182) 


$$$$
C3974-P49
     RDKit          3D

 63 65  0  0  0  0  0  0  0  0999 V2000
   -8.9778  -25.2169   31.8807 C   0  0  0  0  0  0  0  0  0  0  0  0
  -10.0070  -24.9905   32.8907 N   0  0  0  0  0  0  0  0  0  0  0  0
   -9.9217  -23.6315   33.4755 C   0  0  0  0  0  0  0  0  0  0  0  0
  -10.6399  -22.7347   32.5371 C   0  0  0  0  0  0  0  0  0  0  0  0
  -11.8751  -22.0758   32.6822 C   0  0  0  0  0  0  0  0  0  0  0  0
  -12.3086  -21.9072   31.3803 C   0  0  0  0  0  0  0  0  0  0  0  0
  -11.3627  -22.4932   30.5914 N   0  0  0  0  0  0  0  0  0  0  0  0
  -11.4805  -23.1643   29.3011 C   0  0  0  0  0  0  0  0  0  0  0  0
  -12.2042  -24.5038   29.4644 C   0  0  0  0  0  0  0  0  0  0  0  0
  -12.1617  -25.5979   28.3403 C   0  0  0  0  0  0  0  0  0  0  0  0
  -13.2243  -26.7512   28.5732 C   0  0  0  0  0  0  0  0  0  0  0  0
  -13.0674  -27.9750   27.7867 N   0  0  0  0  0  0  0  0  0  0  0  0
  -14.1311  -28.9790   27.8522 C   0  0  0  0  0  0  0  0  0  0  0  0
  -13.7655  -30.3146   27.3306 N   0  0  0  0  0  0  0  0  0  0  0  0
  -14.8384  -31.0504   26.6356 C   0  0  0  0  0  0  0  0  0  0  0  0
  -12.4856  -31.1816   27.9616 S   0  0  0  0  0  0  0  0  0  0  0  0
  -12.2052  -32.2663   27.0397 O   0  0  0  0  0  0  0  0  0  0  0  0
  -11.4227  -30.2596   28.2989 O   0  0  0  0  0  0  0  0  0  0  0  0
  -12.9928  -31.9488   29.4700 C   0  0  0  0  0  0  0  0  0  0  0  0
  -13.0189  -31.0857   30.7066 C   0  0  0  0  0  0  0  0  0  0  0  0
  -13.6938  -32.0071   31.7192 C   0  0  0  0  0  0  0  0  0  0  0  0
  -14.5363  -32.9626   30.9541 N   0  0  0  0  0  0  0  0  0  0  0  0
  -14.1389  -34.3756   31.1535 C   0  0  0  0  0  0  0  0  0  0  0  0
  -14.3338  -34.8715   32.5444 C   0  0  0  0  0  0  0  0  0  0  0  0
  -14.9902  -34.3050   33.6148 C   0  0  0  0  0  0  0  0  0  0  0  0
  -14.8862  -35.0998   34.7084 O   0  0  0  0  0  0  0  0  0  0  0  0
  -14.1828  -36.2453   34.3760 N   0  0  0  0  0  0  0  0  0  0  0  0
  -13.8825  -36.1012   33.0852 C   0  0  0  0  0  0  0  0  0  0  0  0
  -12.9657  -37.4255   32.1086 Br  0  0  0  0  0  0  0  0  0  0  0  0
  -14.3537  -32.5928   29.5201 C   0  0  0  0  0  0  0  0  0  0  0  0
  -10.2445  -22.7355   31.2606 N   0  0  0  0  0  0  0  0  0  0  0  0
   -8.1223  -24.5446   31.9873 H   0  0  0  0  0  0  0  0  0  0  0  0
   -9.3746  -25.1140   30.8660 H   0  0  0  0  0  0  0  0  0  0  0  0
   -8.6233  -26.2409   31.9733 H   0  0  0  0  0  0  0  0  0  0  0  0
  -10.8949  -25.0462   32.4004 H   0  0  0  0  0  0  0  0  0  0  0  0
  -10.4268  -23.6377   34.4473 H   0  0  0  0  0  0  0  0  0  0  0  0
   -8.8927  -23.3011   33.6482 H   0  0  0  0  0  0  0  0  0  0  0  0
  -12.4570  -21.9179   33.5802 H   0  0  0  0  0  0  0  0  0  0  0  0
  -13.2525  -21.5641   30.9995 H   0  0  0  0  0  0  0  0  0  0  0  0
  -12.0131  -22.4880   28.6277 H   0  0  0  0  0  0  0  0  0  0  0  0
  -10.4702  -23.3123   28.9026 H   0  0  0  0  0  0  0  0  0  0  0  0
  -11.8550  -24.9865   30.3806 H   0  0  0  0  0  0  0  0  0  0  0  0
  -13.2546  -24.2145   29.5677 H   0  0  0  0  0  0  0  0  0  0  0  0
  -11.1544  -26.0302   28.3141 H   0  0  0  0  0  0  0  0  0  0  0  0
  -12.3480  -25.1343   27.3649 H   0  0  0  0  0  0  0  0  0  0  0  0
  -14.2206  -26.3258   28.4059 H   0  0  0  0  0  0  0  0  0  0  0  0
  -13.1551  -27.0621   29.6185 H   0  0  0  0  0  0  0  0  0  0  0  0
  -12.7931  -27.8176   26.8135 H   0  0  0  0  0  0  0  0  0  0  0  0
  -14.9836  -28.5946   27.2791 H   0  0  0  0  0  0  0  0  0  0  0  0
  -14.4837  -29.0971   28.8811 H   0  0  0  0  0  0  0  0  0  0  0  0
  -15.7231  -31.1324   27.2724 H   0  0  0  0  0  0  0  0  0  0  0  0
  -15.1269  -30.5063   25.7323 H   0  0  0  0  0  0  0  0  0  0  0  0
  -14.5365  -32.0536   26.3270 H   0  0  0  0  0  0  0  0  0  0  0  0
  -12.2354  -32.7315   29.6146 H   0  0  0  0  0  0  0  0  0  0  0  0
  -12.0272  -30.7640   31.0335 H   0  0  0  0  0  0  0  0  0  0  0  0
  -13.6227  -30.1856   30.5581 H   0  0  0  0  0  0  0  0  0  0  0  0
  -14.3177  -31.4240   32.4049 H   0  0  0  0  0  0  0  0  0  0  0  0
  -12.9307  -32.5118   32.3220 H   0  0  0  0  0  0  0  0  0  0  0  0
  -13.0918  -34.5221   30.8593 H   0  0  0  0  0  0  0  0  0  0  0  0
  -14.7539  -35.0057   30.4973 H   0  0  0  0  0  0  0  0  0  0  0  0
  -15.5407  -33.3870   33.7588 H   0  0  0  0  0  0  0  0  0  0  0  0
  -14.4566  -33.4380   28.8308 H   0  0  0  0  0  0  0  0  0  0  0  0
  -15.1434  -31.8760   29.2754 H   0  0  0  0  0  0  0  0  0  0  0  0
  1  2  1  0
  2  3  1  0
  3  4  1  0
  4  5  1  0
  5  6  2  0
  6  7  1  0
  7  8  1  0
  8  9  1  0
  9 10  1  0
 10 11  1  0
 11 12  1  0
 12 13  1  0
 13 14  1  0
 14 15  1  0
 14 16  1  0
 16 17  2  0
 16 18  2  0
 16 19  1  0
 19 20  1  0
 20 21  1  0
 21 22  1  0
 22 23  1  0
 23 24  1  0
 24 25  2  0
 25 26  1  0
 26 27  1  0
 27 28  2  0
 28 29  1  0
 22 30  1  0
  7 31  1  0
 31  4  2  0
 30 19  1  0
 28 24  1  0
  1 32  1  0
  1 33  1  0
  1 34  1  0
  2 35  1  0
  3 36  1  0
  3 37  1  0
  5 38  1  0
  6 39  1  0
  8 40  1  0
  8 41  1  0
  9 42  1  0
  9 43  1  0
 10 44  1  0
 10 45  1  0
 11 46  1  0
 11 47  1  0
 12 48  1  0
 13 49  1  0
 13 50  1  0
 15 51  1  0
 15 52  1  0
 15 53  1  0
 19 54  1  0
 20 55  1  0
 20 56  1  0
 21 57  1  0
 21 58  1  0
 23 59  1  0
 23 60  1  0
 25 61  1  0
 30 62  1  0
 30 63  1  0
M  END
>  <Energy>  (183) 
-46.637068024588764

>  <compound_id>  (183) 
3974

>  <target_id>  (183) 
1

>  <reference_id>  (183) 
49

>  <inspiration_ids>  (183) 
[138, 49]

>  <energy_score>  (183) 
-46.09645471388099

>  <distance_score>  (183) 
1.7024132674119488

>  <path>  (183) 
/opt/xchem-fragalysis-2/maxwin/BulkDock/SCRATCH/505735/C3974-P49/C3974-P49.minimised.mol

>  <scratch_subdir>  (183) 
/opt/xchem-fragalysis-2/maxwin/BulkDock/SCRATCH/505735/C3974-P49

>  <fragmenstein_runtime>  (183) 
7.980881929397583

>  <fragmenstein_outcome>  (183) 
too moved

>  <fragmenstein_mode>  (183) 
expansion

>  <fragmenstein_error>  (183) 


$$$$
C3975-P138
     RDKit          3D

 63 65  0  0  0  0  0  0  0  0999 V2000
  -12.3774  -23.9198   25.9527 C   0  0  0  0  0  0  0  0  0  0  0  0
  -12.6802  -23.9266   27.4097 C   0  0  0  0  0  0  0  0  0  0  0  0
  -12.1780  -22.8553   28.1703 C   0  0  0  0  0  0  0  0  0  0  0  0
  -12.4390  -22.7788   29.5262 C   0  0  0  0  0  0  0  0  0  0  0  0
  -13.1671  -23.6916   30.1793 N   0  0  0  0  0  0  0  0  0  0  0  0
  -13.6448  -24.7117   29.4384 C   0  0  0  0  0  0  0  0  0  0  0  0
  -13.3957  -24.9198   28.0751 C   0  0  0  0  0  0  0  0  0  0  0  0
  -13.5988  -26.2365   27.6396 N   0  0  0  0  0  0  0  0  0  0  0  0
  -13.5407  -26.8501   26.2052 C   0  0  0  0  0  0  0  0  0  0  0  0
  -13.3915  -26.3345   25.1652 O   0  0  0  0  0  0  0  0  0  0  0  0
  -13.6132  -28.3473   26.3986 C   0  0  0  0  0  0  0  0  0  0  0  0
  -12.1862  -28.6989   26.8448 C   0  0  0  0  0  0  0  0  0  0  0  0
  -11.8249  -30.1685   27.0066 C   0  0  0  0  0  0  0  0  0  0  0  0
  -12.0507  -30.7326   28.3683 C   0  0  0  0  0  0  0  0  0  0  0  0
  -13.4599  -30.6470   28.5883 N   0  0  0  0  0  0  0  0  0  0  0  0
  -14.1980  -31.9571   28.3718 S   0  0  0  0  0  0  0  0  0  0  0  0
  -13.5086  -33.2291   28.3247 O   0  0  0  0  0  0  0  0  0  0  0  0
  -15.4585  -31.9259   29.6263 C   0  0  0  0  0  0  0  0  0  0  0  0
  -14.8883  -31.4295   30.9593 C   0  0  0  0  0  0  0  0  0  0  0  0
  -14.3038  -32.6918   31.5343 C   0  0  0  0  0  0  0  0  0  0  0  0
  -15.4035  -33.6354   31.2756 N   0  0  0  0  0  0  0  0  0  0  0  0
  -14.9776  -35.0266   31.3191 C   0  0  0  0  0  0  0  0  0  0  0  0
  -14.5460  -35.3966   32.6818 C   0  0  0  0  0  0  0  0  0  0  0  0
  -14.8761  -34.8456   33.8988 C   0  0  0  0  0  0  0  0  0  0  0  0
  -14.2065  -35.4769   34.8903 O   0  0  0  0  0  0  0  0  0  0  0  0
  -13.4524  -36.5020   34.3444 N   0  0  0  0  0  0  0  0  0  0  0  0
  -13.6750  -36.4392   33.0326 C   0  0  0  0  0  0  0  0  0  0  0  0
  -12.8919  -37.5754   31.7548 Br  0  0  0  0  0  0  0  0  0  0  0  0
  -15.9551  -33.3139   29.9454 C   0  0  0  0  0  0  0  0  0  0  0  0
  -14.8151  -31.7474   26.8024 N   0  0  0  0  0  0  0  0  0  0  0  0
  -15.9974  -30.9368   26.5767 C   0  0  0  0  0  0  0  0  0  0  0  0
  -14.7597  -32.8522   25.8533 C   0  0  0  0  0  0  0  0  0  0  0  0
  -13.2955  -24.0553   25.3760 H   0  0  0  0  0  0  0  0  0  0  0  0
  -11.6176  -24.6684   25.7146 H   0  0  0  0  0  0  0  0  0  0  0  0
  -11.9983  -22.9498   25.6344 H   0  0  0  0  0  0  0  0  0  0  0  0
  -11.5936  -22.0668   27.7066 H   0  0  0  0  0  0  0  0  0  0  0  0
  -12.0817  -21.9431   30.1234 H   0  0  0  0  0  0  0  0  0  0  0  0
  -14.2165  -25.4304   30.0230 H   0  0  0  0  0  0  0  0  0  0  0  0
  -13.6606  -26.9821   28.3259 H   0  0  0  0  0  0  0  0  0  0  0  0
  -13.8746  -28.8277   25.4575 H   0  0  0  0  0  0  0  0  0  0  0  0
  -14.3679  -28.5920   27.1457 H   0  0  0  0  0  0  0  0  0  0  0  0
  -11.4763  -28.2473   26.1378 H   0  0  0  0  0  0  0  0  0  0  0  0
  -12.0088  -28.1938   27.7874 H   0  0  0  0  0  0  0  0  0  0  0  0
  -12.3634  -30.7887   26.2852 H   0  0  0  0  0  0  0  0  0  0  0  0
  -10.7641  -30.2835   26.8253 H   0  0  0  0  0  0  0  0  0  0  0  0
  -11.5273  -30.2060   29.1440 H   0  0  0  0  0  0  0  0  0  0  0  0
  -11.6521  -31.7516   28.4154 H   0  0  0  0  0  0  0  0  0  0  0  0
  -16.2568  -31.2589   29.2901 H   0  0  0  0  0  0  0  0  0  0  0  0
  -15.7069  -31.0668   31.5965 H   0  0  0  0  0  0  0  0  0  0  0  0
  -14.1541  -30.6242   30.9025 H   0  0  0  0  0  0  0  0  0  0  0  0
  -14.0862  -32.5718   32.5969 H   0  0  0  0  0  0  0  0  0  0  0  0
  -13.3752  -32.9730   31.0234 H   0  0  0  0  0  0  0  0  0  0  0  0
  -14.1783  -35.2012   30.5886 H   0  0  0  0  0  0  0  0  0  0  0  0
  -15.8182  -35.6782   31.0467 H   0  0  0  0  0  0  0  0  0  0  0  0
  -15.5188  -34.0320   34.2012 H   0  0  0  0  0  0  0  0  0  0  0  0
  -15.7123  -34.0501   29.1708 H   0  0  0  0  0  0  0  0  0  0  0  0
  -17.0476  -33.3066   30.0372 H   0  0  0  0  0  0  0  0  0  0  0  0
  -16.0358  -30.5656   25.5467 H   0  0  0  0  0  0  0  0  0  0  0  0
  -16.0179  -30.0578   27.2270 H   0  0  0  0  0  0  0  0  0  0  0  0
  -16.9102  -31.5092   26.7752 H   0  0  0  0  0  0  0  0  0  0  0  0
  -15.4498  -33.6526   26.1399 H   0  0  0  0  0  0  0  0  0  0  0  0
  -13.7484  -33.2686   25.7950 H   0  0  0  0  0  0  0  0  0  0  0  0
  -15.0095  -32.5253   24.8375 H   0  0  0  0  0  0  0  0  0  0  0  0
  1  2  1  0
  2  3  2  0
  3  4  1  0
  4  5  2  0
  5  6  1  0
  6  7  2  0
  7  8  1  0
  8  9  1  0
  9 10  2  0
  9 11  1  0
 11 12  1  0
 12 13  1  0
 13 14  1  0
 14 15  1  0
 15 16  2  0
 16 17  2  0
 16 18  1  0
 18 19  1  0
 19 20  1  0
 20 21  1  0
 21 22  1  0
 22 23  1  0
 23 24  2  0
 24 25  1  0
 25 26  1  0
 26 27  2  0
 27 28  1  0
 21 29  1  0
 16 30  1  0
 30 31  1  0
 30 32  1  0
  7  2  1  0
 29 18  1  0
 27 23  1  0
  1 33  1  0
  1 34  1  0
  1 35  1  0
  3 36  1  0
  4 37  1  0
  6 38  1  0
  8 39  1  0
 11 40  1  0
 11 41  1  0
 12 42  1  0
 12 43  1  0
 13 44  1  0
 13 45  1  0
 14 46  1  0
 14 47  1  0
 18 48  1  0
 19 49  1  0
 19 50  1  0
 20 51  1  0
 20 52  1  0
 22 53  1  0
 22 54  1  0
 24 55  1  0
 29 56  1  0
 29 57  1  0
 31 58  1  0
 31 59  1  0
 31 60  1  0
 32 61  1  0
 32 62  1  0
 32 63  1  0
M  END
>  <Energy>  (184) 
-27.923401906958855

>  <compound_id>  (184) 
3975

>  <target_id>  (184) 
1

>  <reference_id>  (184) 
138

>  <inspiration_ids>  (184) 
[138, 62]

>  <energy_score>  (184) 
-50.72258797901344

>  <distance_score>  (184) 
1.5909249569081592

>  <path>  (184) 
/opt/xchem-fragalysis-2/maxwin/BulkDock/SCRATCH/505735/C3975-P138/C3975-P138.minimised.mol

>  <scratch_subdir>  (184) 
/opt/xchem-fragalysis-2/maxwin/BulkDock/SCRATCH/505735/C3975-P138

>  <fragmenstein_runtime>  (184) 
25.879859924316406

>  <fragmenstein_outcome>  (184) 
too moved

>  <fragmenstein_mode>  (184) 
expansion

>  <fragmenstein_error>  (184) 


$$$$
C3975-P62
     RDKit          3D

 63 65  0  0  0  0  0  0  0  0999 V2000
  -11.6516  -21.6386   30.2542 C   0  0  0  0  0  0  0  0  0  0  0  0
  -12.2308  -22.3528   31.4356 C   0  0  0  0  0  0  0  0  0  0  0  0
  -12.4533  -21.6851   32.6346 C   0  0  0  0  0  0  0  0  0  0  0  0
  -12.9627  -22.3549   33.7309 C   0  0  0  0  0  0  0  0  0  0  0  0
  -13.1748  -23.6759   33.7512 N   0  0  0  0  0  0  0  0  0  0  0  0
  -12.8795  -24.3398   32.6112 C   0  0  0  0  0  0  0  0  0  0  0  0
  -12.4588  -23.7129   31.4433 C   0  0  0  0  0  0  0  0  0  0  0  0
  -12.1929  -24.4226   30.3045 N   0  0  0  0  0  0  0  0  0  0  0  0
  -11.6887  -25.7317   30.1227 C   0  0  0  0  0  0  0  0  0  0  0  0
  -11.2892  -26.5316   30.9141 O   0  0  0  0  0  0  0  0  0  0  0  0
  -11.7498  -26.0160   28.6294 C   0  0  0  0  0  0  0  0  0  0  0  0
  -11.3987  -27.4694   28.3641 C   0  0  0  0  0  0  0  0  0  0  0  0
  -12.4891  -28.4171   28.8909 C   0  0  0  0  0  0  0  0  0  0  0  0
  -12.9125  -30.0125   29.0350 C   0  0  0  0  0  0  0  0  0  0  0  0
  -14.3756  -30.1827   29.0251 N   0  0  0  0  0  0  0  0  0  0  0  0
  -14.9987  -31.5695   28.8178 S   0  0  0  0  0  0  0  0  0  0  0  0
  -14.2799  -32.6797   28.2446 O   0  0  0  0  0  0  0  0  0  0  0  0
  -15.7391  -32.0928   30.3438 C   0  0  0  0  0  0  0  0  0  0  0  0
  -14.7334  -32.1623   31.4869 C   0  0  0  0  0  0  0  0  0  0  0  0
  -14.6261  -33.6301   31.8245 C   0  0  0  0  0  0  0  0  0  0  0  0
  -15.9698  -34.1251   31.5344 N   0  0  0  0  0  0  0  0  0  0  0  0
  -16.0202  -35.5916   31.4462 C   0  0  0  0  0  0  0  0  0  0  0  0
  -15.6768  -36.1894   32.7622 C   0  0  0  0  0  0  0  0  0  0  0  0
  -16.3165  -35.9941   33.9672 C   0  0  0  0  0  0  0  0  0  0  0  0
  -15.6921  -36.6900   34.9473 O   0  0  0  0  0  0  0  0  0  0  0  0
  -14.6233  -37.3828   34.4045 N   0  0  0  0  0  0  0  0  0  0  0  0
  -14.6314  -37.0749   33.1072 C   0  0  0  0  0  0  0  0  0  0  0  0
  -13.3374  -37.7367   31.9125 Br  0  0  0  0  0  0  0  0  0  0  0  0
  -16.3291  -33.4955   30.2519 C   0  0  0  0  0  0  0  0  0  0  0  0
  -16.2341  -31.2791   27.6859 N   0  0  0  0  0  0  0  0  0  0  0  0
  -17.3707  -30.4461   28.0489 C   0  0  0  0  0  0  0  0  0  0  0  0
  -16.6411  -32.3312   26.7612 C   0  0  0  0  0  0  0  0  0  0  0  0
  -12.3727  -21.0095   29.7501 H   0  0  0  0  0  0  0  0  0  0  0  0
  -11.2711  -22.3003   29.4742 H   0  0  0  0  0  0  0  0  0  0  0  0
  -10.8223  -21.0237   30.5916 H   0  0  0  0  0  0  0  0  0  0  0  0
  -12.1585  -20.6556   32.7646 H   0  0  0  0  0  0  0  0  0  0  0  0
  -13.1519  -21.8316   34.6634 H   0  0  0  0  0  0  0  0  0  0  0  0
  -13.0235  -25.4140   32.6564 H   0  0  0  0  0  0  0  0  0  0  0  0
  -12.3591  -24.0056   29.3983 H   0  0  0  0  0  0  0  0  0  0  0  0
  -11.0181  -25.3689   28.1297 H   0  0  0  0  0  0  0  0  0  0  0  0
  -12.7454  -25.7812   28.2351 H   0  0  0  0  0  0  0  0  0  0  0  0
  -11.3079  -27.5505   27.2800 H   0  0  0  0  0  0  0  0  0  0  0  0
  -10.4471  -27.5820   28.8744 H   0  0  0  0  0  0  0  0  0  0  0  0
  -12.5262  -28.1196   29.9382 H   0  0  0  0  0  0  0  0  0  0  0  0
  -13.2321  -28.0600   28.1895 H   0  0  0  0  0  0  0  0  0  0  0  0
  -12.5702  -30.3848   30.0113 H   0  0  0  0  0  0  0  0  0  0  0  0
  -12.4892  -30.6376   28.2552 H   0  0  0  0  0  0  0  0  0  0  0  0
  -16.5093  -31.3550   30.5972 H   0  0  0  0  0  0  0  0  0  0  0  0
  -15.1463  -31.6241   32.3489 H   0  0  0  0  0  0  0  0  0  0  0  0
  -13.7503  -31.7435   31.2697 H   0  0  0  0  0  0  0  0  0  0  0  0
  -14.3580  -33.7512   32.8743 H   0  0  0  0  0  0  0  0  0  0  0  0
  -13.8666  -34.1190   31.2097 H   0  0  0  0  0  0  0  0  0  0  0  0
  -15.3620  -35.9629   30.6525 H   0  0  0  0  0  0  0  0  0  0  0  0
  -17.0397  -35.9023   31.1841 H   0  0  0  0  0  0  0  0  0  0  0  0
  -17.1715  -35.4114   34.2781 H   0  0  0  0  0  0  0  0  0  0  0  0
  -15.9278  -34.0668   29.4077 H   0  0  0  0  0  0  0  0  0  0  0  0
  -17.4175  -33.4553   30.1356 H   0  0  0  0  0  0  0  0  0  0  0  0
  -17.8868  -30.0666   27.1600 H   0  0  0  0  0  0  0  0  0  0  0  0
  -17.0549  -29.5661   28.6189 H   0  0  0  0  0  0  0  0  0  0  0  0
  -18.0909  -31.0015   28.6588 H   0  0  0  0  0  0  0  0  0  0  0  0
  -17.1775  -33.1303   27.2827 H   0  0  0  0  0  0  0  0  0  0  0  0
  -15.7760  -32.7688   26.2525 H   0  0  0  0  0  0  0  0  0  0  0  0
  -17.2887  -31.9407   25.9679 H   0  0  0  0  0  0  0  0  0  0  0  0
  1  2  1  0
  2  3  2  0
  3  4  1  0
  4  5  2  0
  5  6  1  0
  6  7  2  0
  7  8  1  0
  8  9  1  0
  9 10  2  0
  9 11  1  0
 11 12  1  0
 12 13  1  0
 13 14  1  0
 14 15  1  0
 15 16  2  0
 16 17  2  0
 16 18  1  0
 18 19  1  0
 19 20  1  0
 20 21  1  0
 21 22  1  0
 22 23  1  0
 23 24  2  0
 24 25  1  0
 25 26  1  0
 26 27  2  0
 27 28  1  0
 21 29  1  0
 16 30  1  0
 30 31  1  0
 30 32  1  0
  7  2  1  0
 29 18  1  0
 27 23  1  0
  1 33  1  0
  1 34  1  0
  1 35  1  0
  3 36  1  0
  4 37  1  0
  6 38  1  0
  8 39  1  0
 11 40  1  0
 11 41  1  0
 12 42  1  0
 12 43  1  0
 13 44  1  0
 13 45  1  0
 14 46  1  0
 14 47  1  0
 18 48  1  0
 19 49  1  0
 19 50  1  0
 20 51  1  0
 20 52  1  0
 22 53  1  0
 22 54  1  0
 24 55  1  0
 29 56  1  0
 29 57  1  0
 31 58  1  0
 31 59  1  0
 31 60  1  0
 32 61  1  0
 32 62  1  0
 32 63  1  0
M  END
>  <Energy>  (185) 
-18.188696000954156

>  <compound_id>  (185) 
3975

>  <target_id>  (185) 
1

>  <reference_id>  (185) 
62

>  <inspiration_ids>  (185) 
[138, 62]

>  <energy_score>  (185) 
-55.66224290563966

>  <distance_score>  (185) 
3.0333168308628427

>  <path>  (185) 
/opt/xchem-fragalysis-2/maxwin/BulkDock/SCRATCH/505735/C3975-P62/C3975-P62.minimised.mol

>  <scratch_subdir>  (185) 
/opt/xchem-fragalysis-2/maxwin/BulkDock/SCRATCH/505735/C3975-P62

>  <fragmenstein_runtime>  (185) 
31.08984375

>  <fragmenstein_outcome>  (185) 
too moved

>  <fragmenstein_mode>  (185) 
expansion

>  <fragmenstein_error>  (185) 


$$$$
C1219-P138
     RDKit          3D

 63 66  0  0  0  0  0  0  0  0999 V2000
  -15.2586  -30.9450   26.4746 C   0  0  0  0  0  0  0  0  0  0  0  0
  -14.3844  -32.0319   26.8756 N   0  0  0  0  0  0  0  0  0  0  0  0
  -14.1906  -32.9711   25.7779 C   0  0  0  0  0  0  0  0  0  0  0  0
  -13.1522  -31.8839   28.0530 S   0  0  0  0  0  0  0  0  0  0  0  0
  -11.9423  -32.2711   27.3567 O   0  0  0  0  0  0  0  0  0  0  0  0
  -13.3394  -30.5703   28.7921 N   0  0  0  0  0  0  0  0  0  0  0  0
  -13.2427  -29.2508   28.2311 C   0  0  0  0  0  0  0  0  0  0  0  0
  -12.1623  -29.1610   27.1668 C   0  0  0  0  0  0  0  0  0  0  0  0
  -12.1773  -27.7525   26.6432 C   0  0  0  0  0  0  0  0  0  0  0  0
  -11.0159  -27.3212   25.9165 O   0  0  0  0  0  0  0  0  0  0  0  0
  -10.6236  -25.9829   25.9902 C   0  0  0  0  0  0  0  0  0  0  0  0
   -9.4774  -25.6721   25.7093 O   0  0  0  0  0  0  0  0  0  0  0  0
  -11.6124  -25.0600   26.4734 C   0  0  0  0  0  0  0  0  0  0  0  0
  -11.4927  -24.0438   27.3937 C   0  0  0  0  0  0  0  0  0  0  0  0
  -12.6244  -23.9153   28.1839 N   0  0  0  0  0  0  0  0  0  0  0  0
  -13.5554  -24.7271   27.7196 C   0  0  0  0  0  0  0  0  0  0  0  0
  -14.6349  -25.3747   28.4887 C   0  0  0  0  0  0  0  0  0  0  0  0
  -14.6050  -25.3018   29.8894 C   0  0  0  0  0  0  0  0  0  0  0  0
  -15.5341  -25.9966   30.6676 C   0  0  0  0  0  0  0  0  0  0  0  0
  -16.5222  -26.7643   30.0590 C   0  0  0  0  0  0  0  0  0  0  0  0
  -16.5880  -26.8325   28.6708 C   0  0  0  0  0  0  0  0  0  0  0  0
  -15.6516  -26.1451   27.8914 C   0  0  0  0  0  0  0  0  0  0  0  0
  -13.2759  -25.0837   26.0538 S   0  0  0  0  0  0  0  0  0  0  0  0
  -13.5187  -33.1230   29.2608 C   0  0  0  0  0  0  0  0  0  0  0  0
  -12.6519  -32.9884   30.5088 C   0  0  0  0  0  0  0  0  0  0  0  0
  -13.6434  -32.6684   31.6093 C   0  0  0  0  0  0  0  0  0  0  0  0
  -14.9134  -33.3057   31.2036 N   0  0  0  0  0  0  0  0  0  0  0  0
  -14.9700  -34.7657   31.3553 C   0  0  0  0  0  0  0  0  0  0  0  0
  -14.6153  -35.2012   32.7192 C   0  0  0  0  0  0  0  0  0  0  0  0
  -14.9674  -34.6470   33.9267 C   0  0  0  0  0  0  0  0  0  0  0  0
  -14.3587  -35.3147   34.9351 O   0  0  0  0  0  0  0  0  0  0  0  0
  -13.6294  -36.3708   34.4091 N   0  0  0  0  0  0  0  0  0  0  0  0
  -13.8125  -36.2953   33.0919 C   0  0  0  0  0  0  0  0  0  0  0  0
  -13.0467  -37.4865   31.8522 Br  0  0  0  0  0  0  0  0  0  0  0  0
  -14.9616  -32.9845   29.7608 C   0  0  0  0  0  0  0  0  0  0  0  0
  -14.7300  -30.1983   25.8760 H   0  0  0  0  0  0  0  0  0  0  0  0
  -15.7119  -30.4641   27.3465 H   0  0  0  0  0  0  0  0  0  0  0  0
  -16.1054  -31.3070   25.8792 H   0  0  0  0  0  0  0  0  0  0  0  0
  -15.1412  -33.2527   25.3116 H   0  0  0  0  0  0  0  0  0  0  0  0
  -13.5365  -32.5509   25.0095 H   0  0  0  0  0  0  0  0  0  0  0  0
  -13.7414  -33.9035   26.1370 H   0  0  0  0  0  0  0  0  0  0  0  0
  -13.0660  -28.5545   29.0525 H   0  0  0  0  0  0  0  0  0  0  0  0
  -14.2066  -28.9461   27.8154 H   0  0  0  0  0  0  0  0  0  0  0  0
  -12.4424  -29.8366   26.3652 H   0  0  0  0  0  0  0  0  0  0  0  0
  -11.1793  -29.4826   27.5148 H   0  0  0  0  0  0  0  0  0  0  0  0
  -12.3084  -27.1220   27.5188 H   0  0  0  0  0  0  0  0  0  0  0  0
  -13.0352  -27.6902   25.9658 H   0  0  0  0  0  0  0  0  0  0  0  0
  -10.5758  -23.5603   27.6902 H   0  0  0  0  0  0  0  0  0  0  0  0
  -13.8451  -24.7057   30.3952 H   0  0  0  0  0  0  0  0  0  0  0  0
  -15.4798  -25.9277   31.7520 H   0  0  0  0  0  0  0  0  0  0  0  0
  -17.2462  -27.2939   30.6722 H   0  0  0  0  0  0  0  0  0  0  0  0
  -17.3726  -27.4169   28.1983 H   0  0  0  0  0  0  0  0  0  0  0  0
  -15.7417  -26.2211   26.8121 H   0  0  0  0  0  0  0  0  0  0  0  0
  -13.3508  -34.0969   28.7870 H   0  0  0  0  0  0  0  0  0  0  0  0
  -12.1597  -33.9463   30.7131 H   0  0  0  0  0  0  0  0  0  0  0  0
  -11.8760  -32.2220   30.4426 H   0  0  0  0  0  0  0  0  0  0  0  0
  -13.8049  -31.5841   31.6583 H   0  0  0  0  0  0  0  0  0  0  0  0
  -13.2745  -32.9578   32.5957 H   0  0  0  0  0  0  0  0  0  0  0  0
  -15.9959  -35.0972   31.1484 H   0  0  0  0  0  0  0  0  0  0  0  0
  -14.3334  -35.2662   30.6187 H   0  0  0  0  0  0  0  0  0  0  0  0
  -15.5765  -33.8006   34.2088 H   0  0  0  0  0  0  0  0  0  0  0  0
  -15.3602  -31.9684   29.6598 H   0  0  0  0  0  0  0  0  0  0  0  0
  -15.6499  -33.6323   29.2040 H   0  0  0  0  0  0  0  0  0  0  0  0
  1  2  1  0
  2  3  1  0
  2  4  1  0
  4  5  2  0
  4  6  2  0
  6  7  1  0
  7  8  1  0
  8  9  1  0
  9 10  1  0
 10 11  1  0
 11 12  2  0
 11 13  1  0
 13 14  2  0
 14 15  1  0
 15 16  2  0
 16 17  1  0
 17 18  2  0
 18 19  1  0
 19 20  2  0
 20 21  1  0
 21 22  2  0
 16 23  1  0
  4 24  1  0
 24 25  1  0
 25 26  1  0
 26 27  1  0
 27 28  1  0
 28 29  1  0
 29 30  2  0
 30 31  1  0
 31 32  1  0
 32 33  2  0
 33 34  1  0
 27 35  1  0
 23 13  1  0
 35 24  1  0
 22 17  1  0
 33 29  1  0
  1 36  1  0
  1 37  1  0
  1 38  1  0
  3 39  1  0
  3 40  1  0
  3 41  1  0
  7 42  1  0
  7 43  1  0
  8 44  1  0
  8 45  1  0
  9 46  1  0
  9 47  1  0
 14 48  1  0
 18 49  1  0
 19 50  1  0
 20 51  1  0
 21 52  1  0
 22 53  1  0
 24 54  1  0
 25 55  1  0
 25 56  1  0
 26 57  1  0
 26 58  1  0
 28 59  1  0
 28 60  1  0
 30 61  1  0
 35 62  1  0
 35 63  1  0
M  END
>  <Energy>  (186) 
-2.7061471883119372

>  <compound_id>  (186) 
1219

>  <target_id>  (186) 
1

>  <reference_id>  (186) 
138

>  <inspiration_ids>  (186) 
[138, 64]

>  <energy_score>  (186) 
-53.02801348732538

>  <distance_score>  (186) 
1.6811934513307882

>  <path>  (186) 
/opt/xchem-fragalysis-2/maxwin/BulkDock/SCRATCH/505735/C1219-P138/C1219-P138.minimised.mol

>  <scratch_subdir>  (186) 
/opt/xchem-fragalysis-2/maxwin/BulkDock/SCRATCH/505735/C1219-P138

>  <fragmenstein_runtime>  (186) 
9.371235609054565

>  <fragmenstein_outcome>  (186) 
too moved

>  <fragmenstein_mode>  (186) 
expansion

>  <fragmenstein_error>  (186) 


$$$$
C1219-P64
     RDKit          3D

 63 66  0  0  0  0  0  0  0  0999 V2000
  -15.9844  -28.9873   27.8736 C   0  0  0  0  0  0  0  0  0  0  0  0
  -14.9752  -29.9205   27.4323 N   0  0  0  0  0  0  0  0  0  0  0  0
  -15.5803  -30.9706   26.5900 C   0  0  0  0  0  0  0  0  0  0  0  0
  -13.6189  -30.2610   28.4191 S   0  0  0  0  0  0  0  0  0  0  0  0
  -12.9573  -31.1569   27.5014 O   0  0  0  0  0  0  0  0  0  0  0  0
  -12.9932  -28.8688   28.8054 N   0  0  0  0  0  0  0  0  0  0  0  0
  -12.1508  -27.9896   27.7890 C   0  0  0  0  0  0  0  0  0  0  0  0
  -10.9587  -27.0909   28.3346 C   0  0  0  0  0  0  0  0  0  0  0  0
  -10.9873  -25.5721   28.5293 C   0  0  0  0  0  0  0  0  0  0  0  0
  -12.0645  -24.9956   27.8172 O   0  0  0  0  0  0  0  0  0  0  0  0
  -11.8128  -24.6680   26.5351 C   0  0  0  0  0  0  0  0  0  0  0  0
  -10.7148  -24.5617   26.0198 O   0  0  0  0  0  0  0  0  0  0  0  0
  -13.0548  -24.5350   25.8657 C   0  0  0  0  0  0  0  0  0  0  0  0
  -13.4137  -23.5984   24.9402 C   0  0  0  0  0  0  0  0  0  0  0  0
  -14.7077  -23.7080   24.4822 N   0  0  0  0  0  0  0  0  0  0  0  0
  -15.3004  -24.7428   25.0434 C   0  0  0  0  0  0  0  0  0  0  0  0
  -16.7153  -25.0839   24.8306 C   0  0  0  0  0  0  0  0  0  0  0  0
  -17.6469  -24.0451   24.6670 C   0  0  0  0  0  0  0  0  0  0  0  0
  -18.9975  -24.3211   24.4446 C   0  0  0  0  0  0  0  0  0  0  0  0
  -19.4353  -25.6414   24.3794 C   0  0  0  0  0  0  0  0  0  0  0  0
  -18.5255  -26.6847   24.5368 C   0  0  0  0  0  0  0  0  0  0  0  0
  -17.1737  -26.4082   24.7603 C   0  0  0  0  0  0  0  0  0  0  0  0
  -14.3265  -25.6414   26.1121 S   0  0  0  0  0  0  0  0  0  0  0  0
  -14.0964  -31.2776   29.7805 C   0  0  0  0  0  0  0  0  0  0  0  0
  -14.6114  -30.7020   31.0646 C   0  0  0  0  0  0  0  0  0  0  0  0
  -15.5091  -31.8036   31.6535 C   0  0  0  0  0  0  0  0  0  0  0  0
  -15.5997  -32.9246   30.7014 N   0  0  0  0  0  0  0  0  0  0  0  0
  -14.7659  -34.1181   30.9484 C   0  0  0  0  0  0  0  0  0  0  0  0
  -15.2706  -35.0224   32.0264 C   0  0  0  0  0  0  0  0  0  0  0  0
  -16.2278  -34.8049   32.9937 C   0  0  0  0  0  0  0  0  0  0  0  0
  -16.1987  -35.7967   33.9186 O   0  0  0  0  0  0  0  0  0  0  0  0
  -15.2700  -36.7503   33.5421 N   0  0  0  0  0  0  0  0  0  0  0  0
  -14.7620  -36.3018   32.3931 C   0  0  0  0  0  0  0  0  0  0  0  0
  -13.3940  -37.2330   31.4911 Br  0  0  0  0  0  0  0  0  0  0  0  0
  -15.2032  -32.2731   29.4380 C   0  0  0  0  0  0  0  0  0  0  0  0
  -15.5377  -28.0767   28.2845 H   0  0  0  0  0  0  0  0  0  0  0  0
  -16.6214  -29.4227   28.6502 H   0  0  0  0  0  0  0  0  0  0  0  0
  -16.6262  -28.6631   27.0474 H   0  0  0  0  0  0  0  0  0  0  0  0
  -16.3401  -31.5522   27.1156 H   0  0  0  0  0  0  0  0  0  0  0  0
  -16.0919  -30.5122   25.7359 H   0  0  0  0  0  0  0  0  0  0  0  0
  -14.8468  -31.6696   26.1790 H   0  0  0  0  0  0  0  0  0  0  0  0
  -12.8420  -27.4069   27.2012 H   0  0  0  0  0  0  0  0  0  0  0  0
  -11.6720  -28.6888   27.1337 H   0  0  0  0  0  0  0  0  0  0  0  0
  -10.5354  -27.4935   29.2541 H   0  0  0  0  0  0  0  0  0  0  0  0
  -10.1883  -27.1644   27.5591 H   0  0  0  0  0  0  0  0  0  0  0  0
  -11.0898  -25.3114   29.5871 H   0  0  0  0  0  0  0  0  0  0  0  0
  -10.0242  -25.1269   28.2447 H   0  0  0  0  0  0  0  0  0  0  0  0
  -12.7780  -22.8022   24.5671 H   0  0  0  0  0  0  0  0  0  0  0  0
  -17.3200  -23.0077   24.7243 H   0  0  0  0  0  0  0  0  0  0  0  0
  -19.7070  -23.5055   24.3273 H   0  0  0  0  0  0  0  0  0  0  0  0
  -20.4874  -25.8566   24.2079 H   0  0  0  0  0  0  0  0  0  0  0  0
  -18.8703  -27.7143   24.4852 H   0  0  0  0  0  0  0  0  0  0  0  0
  -16.4859  -27.2411   24.8702 H   0  0  0  0  0  0  0  0  0  0  0  0
  -13.1700  -31.7760   30.0675 H   0  0  0  0  0  0  0  0  0  0  0  0
  -13.7853  -30.5238   31.7512 H   0  0  0  0  0  0  0  0  0  0  0  0
  -15.1734  -29.7750   30.9146 H   0  0  0  0  0  0  0  0  0  0  0  0
  -16.5196  -31.3860   31.7576 H   0  0  0  0  0  0  0  0  0  0  0  0
  -15.2210  -32.0690   32.6671 H   0  0  0  0  0  0  0  0  0  0  0  0
  -14.7452  -34.7211   30.0312 H   0  0  0  0  0  0  0  0  0  0  0  0
  -13.7358  -33.8278   31.1755 H   0  0  0  0  0  0  0  0  0  0  0  0
  -16.9234  -34.0041   33.1968 H   0  0  0  0  0  0  0  0  0  0  0  0
  -16.1013  -31.7388   29.1152 H   0  0  0  0  0  0  0  0  0  0  0  0
  -14.9619  -32.9770   28.6362 H   0  0  0  0  0  0  0  0  0  0  0  0
  1  2  1  0
  2  3  1  0
  2  4  1  0
  4  5  2  0
  4  6  2  0
  6  7  1  0
  7  8  1  0
  8  9  1  0
  9 10  1  0
 10 11  1  0
 11 12  2  0
 11 13  1  0
 13 14  2  0
 14 15  1  0
 15 16  2  0
 16 17  1  0
 17 18  2  0
 18 19  1  0
 19 20  2  0
 20 21  1  0
 21 22  2  0
 16 23  1  0
  4 24  1  0
 24 25  1  0
 25 26  1  0
 26 27  1  0
 27 28  1  0
 28 29  1  0
 29 30  2  0
 30 31  1  0
 31 32  1  0
 32 33  2  0
 33 34  1  0
 27 35  1  0
 23 13  1  0
 35 24  1  0
 22 17  1  0
 33 29  1  0
  1 36  1  0
  1 37  1  0
  1 38  1  0
  3 39  1  0
  3 40  1  0
  3 41  1  0
  7 42  1  0
  7 43  1  0
  8 44  1  0
  8 45  1  0
  9 46  1  0
  9 47  1  0
 14 48  1  0
 18 49  1  0
 19 50  1  0
 20 51  1  0
 21 52  1  0
 22 53  1  0
 24 54  1  0
 25 55  1  0
 25 56  1  0
 26 57  1  0
 26 58  1  0
 28 59  1  0
 28 60  1  0
 30 61  1  0
 35 62  1  0
 35 63  1  0
M  END
>  <Energy>  (187) 
-14.131634413507554

>  <compound_id>  (187) 
1219

>  <target_id>  (187) 
1

>  <reference_id>  (187) 
64

>  <inspiration_ids>  (187) 
[138, 64]

>  <energy_score>  (187) 
-64.45350071252156

>  <distance_score>  (187) 
2.533897738586196

>  <path>  (187) 
/opt/xchem-fragalysis-2/maxwin/BulkDock/SCRATCH/505735/C1219-P64/C1219-P64.minimised.mol

>  <scratch_subdir>  (187) 
/opt/xchem-fragalysis-2/maxwin/BulkDock/SCRATCH/505735/C1219-P64

>  <fragmenstein_runtime>  (187) 
7.289050340652466

>  <fragmenstein_outcome>  (187) 
too moved

>  <fragmenstein_mode>  (187) 
expansion

>  <fragmenstein_error>  (187) 


$$$$
C1226-P138
     RDKit          3D

 55 58  0  0  0  0  0  0  0  0999 V2000
  -14.1906  -30.7704   26.1825 C   0  0  0  0  0  0  0  0  0  0  0  0
  -13.3637  -31.9836   26.2493 N   0  0  0  0  0  0  0  0  0  0  0  0
  -14.2112  -33.1239   25.9149 C   0  0  0  0  0  0  0  0  0  0  0  0
  -12.2172  -32.0998   27.5480 S   0  0  0  0  0  0  0  0  0  0  0  0
  -11.4395  -30.8932   27.3752 O   0  0  0  0  0  0  0  0  0  0  0  0
  -11.5610  -33.4913   27.4246 N   0  0  0  0  0  0  0  0  0  0  0  0
  -10.2169  -33.6190   26.7407 C   0  0  0  0  0  0  0  0  0  0  0  0
   -9.8605  -34.9992   26.2458 N   0  0  0  0  0  0  0  0  0  0  0  0
   -8.4226  -35.3708   26.3351 C   0  0  0  0  0  0  0  0  0  0  0  0
   -7.5742  -34.8418   25.2092 C   0  0  0  0  0  0  0  0  0  0  0  0
   -8.0669  -34.5091   24.0141 C   0  0  0  0  0  0  0  0  0  0  0  0
   -9.4838  -34.7571   23.7978 C   0  0  0  0  0  0  0  0  0  0  0  0
  -10.0467  -34.5203   22.5480 C   0  0  0  0  0  0  0  0  0  0  0  0
  -11.4110  -34.7000   22.3942 C   0  0  0  0  0  0  0  0  0  0  0  0
  -12.0005  -34.2915   21.2684 F   0  0  0  0  0  0  0  0  0  0  0  0
  -12.1965  -35.2383   23.4003 C   0  0  0  0  0  0  0  0  0  0  0  0
  -11.6350  -35.4729   24.6399 C   0  0  0  0  0  0  0  0  0  0  0  0
  -12.4189  -35.9541   25.6160 F   0  0  0  0  0  0  0  0  0  0  0  0
  -10.3066  -35.1377   24.8905 C   0  0  0  0  0  0  0  0  0  0  0  0
  -13.2224  -31.8996   29.0180 C   0  0  0  0  0  0  0  0  0  0  0  0
  -12.4751  -31.7795   30.3293 C   0  0  0  0  0  0  0  0  0  0  0  0
  -12.8521  -33.0325   31.0930 C   0  0  0  0  0  0  0  0  0  0  0  0
  -14.2442  -33.2549   30.6843 N   0  0  0  0  0  0  0  0  0  0  0  0
  -14.7433  -34.6101   30.9592 C   0  0  0  0  0  0  0  0  0  0  0  0
  -14.5649  -34.9910   32.3795 C   0  0  0  0  0  0  0  0  0  0  0  0
  -14.9766  -34.3221   33.5080 C   0  0  0  0  0  0  0  0  0  0  0  0
  -14.5704  -34.9859   34.6171 O   0  0  0  0  0  0  0  0  0  0  0  0
  -13.8977  -36.1386   34.2383 N   0  0  0  0  0  0  0  0  0  0  0  0
  -13.9275  -36.1336   32.9056 C   0  0  0  0  0  0  0  0  0  0  0  0
  -13.1740  -37.4919   31.8460 Br  0  0  0  0  0  0  0  0  0  0  0  0
  -14.2205  -33.0256   29.2267 C   0  0  0  0  0  0  0  0  0  0  0  0
  -13.5712  -29.8693   26.2222 H   0  0  0  0  0  0  0  0  0  0  0  0
  -14.7551  -30.7316   25.2470 H   0  0  0  0  0  0  0  0  0  0  0  0
  -14.9165  -30.7268   27.0006 H   0  0  0  0  0  0  0  0  0  0  0  0
  -14.5511  -33.0559   24.8754 H   0  0  0  0  0  0  0  0  0  0  0  0
  -13.6805  -34.0695   26.0068 H   0  0  0  0  0  0  0  0  0  0  0  0
  -15.0949  -33.1843   26.5578 H   0  0  0  0  0  0  0  0  0  0  0  0
   -9.4579  -33.3006   27.4598 H   0  0  0  0  0  0  0  0  0  0  0  0
  -10.1721  -32.9152   25.9125 H   0  0  0  0  0  0  0  0  0  0  0  0
   -8.3380  -36.4645   26.3614 H   0  0  0  0  0  0  0  0  0  0  0  0
   -8.0205  -35.0104   27.2894 H   0  0  0  0  0  0  0  0  0  0  0  0
   -6.5149  -34.7073   25.4107 H   0  0  0  0  0  0  0  0  0  0  0  0
   -7.4454  -34.1082   23.2206 H   0  0  0  0  0  0  0  0  0  0  0  0
   -9.4601  -34.1318   21.7201 H   0  0  0  0  0  0  0  0  0  0  0  0
  -13.2517  -35.4192   23.2363 H   0  0  0  0  0  0  0  0  0  0  0  0
  -13.7543  -30.9511   28.8771 H   0  0  0  0  0  0  0  0  0  0  0  0
  -11.4059  -31.6547   30.2207 H   0  0  0  0  0  0  0  0  0  0  0  0
  -12.8420  -30.9010   30.8765 H   0  0  0  0  0  0  0  0  0  0  0  0
  -12.2020  -33.8654   30.7974 H   0  0  0  0  0  0  0  0  0  0  0  0
  -12.7617  -32.8604   32.1684 H   0  0  0  0  0  0  0  0  0  0  0  0
  -14.2527  -35.3391   30.3050 H   0  0  0  0  0  0  0  0  0  0  0  0
  -15.8138  -34.6477   30.7209 H   0  0  0  0  0  0  0  0  0  0  0  0
  -15.5143  -33.3997   33.6704 H   0  0  0  0  0  0  0  0  0  0  0  0
  -13.9188  -33.9297   28.6861 H   0  0  0  0  0  0  0  0  0  0  0  0
  -15.2190  -32.7411   28.8783 H   0  0  0  0  0  0  0  0  0  0  0  0
  1  2  1  0
  2  3  1  0
  2  4  1  0
  4  5  2  0
  4  6  2  0
  6  7  1  0
  7  8  1  0
  8  9  1  0
  9 10  1  0
 10 11  2  0
 11 12  1  0
 12 13  2  0
 13 14  1  0
 14 15  1  0
 14 16  2  0
 16 17  1  0
 17 18  1  0
 17 19  2  0
  4 20  1  0
 20 21  1  0
 21 22  1  0
 22 23  1  0
 23 24  1  0
 24 25  1  0
 25 26  2  0
 26 27  1  0
 27 28  1  0
 28 29  2  0
 29 30  1  0
 23 31  1  0
 19  8  1  0
 31 20  1  0
 19 12  1  0
 29 25  1  0
  1 32  1  0
  1 33  1  0
  1 34  1  0
  3 35  1  0
  3 36  1  0
  3 37  1  0
  7 38  1  0
  7 39  1  0
  9 40  1  0
  9 41  1  0
 10 42  1  0
 11 43  1  0
 13 44  1  0
 16 45  1  0
 20 46  1  0
 21 47  1  0
 21 48  1  0
 22 49  1  0
 22 50  1  0
 24 51  1  0
 24 52  1  0
 26 53  1  0
 31 54  1  0
 31 55  1  0
M  END
>  <Energy>  (188) 
-103.31916510728058

>  <compound_id>  (188) 
1226

>  <target_id>  (188) 
1

>  <reference_id>  (188) 
138

>  <inspiration_ids>  (188) 
[138, 68]

>  <energy_score>  (188) 
-53.02054488036919

>  <distance_score>  (188) 
1.9777183954454078

>  <path>  (188) 
/opt/xchem-fragalysis-2/maxwin/BulkDock/SCRATCH/505735/C1226-P138/C1226-P138.minimised.mol

>  <scratch_subdir>  (188) 
/opt/xchem-fragalysis-2/maxwin/BulkDock/SCRATCH/505735/C1226-P138

>  <fragmenstein_runtime>  (188) 
5.084712982177734

>  <fragmenstein_outcome>  (188) 
too moved

>  <fragmenstein_mode>  (188) 
expansion

>  <fragmenstein_error>  (188) 


$$$$
C1226-P68
     RDKit          3D

 55 58  0  0  0  0  0  0  0  0999 V2000
  -15.8033  -31.3563   25.4109 C   0  0  0  0  0  0  0  0  0  0  0  0
  -14.8972  -32.4911   25.2052 N   0  0  0  0  0  0  0  0  0  0  0  0
  -15.5888  -33.5251   24.4596 C   0  0  0  0  0  0  0  0  0  0  0  0
  -13.9321  -32.9630   26.5352 S   0  0  0  0  0  0  0  0  0  0  0  0
  -13.3014  -31.6947   26.7991 O   0  0  0  0  0  0  0  0  0  0  0  0
  -13.1244  -34.1732   26.0290 N   0  0  0  0  0  0  0  0  0  0  0  0
  -11.8712  -34.0310   25.2002 C   0  0  0  0  0  0  0  0  0  0  0  0
  -11.1177  -35.3539   25.0215 N   0  0  0  0  0  0  0  0  0  0  0  0
   -9.6940  -35.4359   25.4409 C   0  0  0  0  0  0  0  0  0  0  0  0
   -8.6671  -35.4557   24.3401 C   0  0  0  0  0  0  0  0  0  0  0  0
   -8.9422  -35.4642   23.0402 C   0  0  0  0  0  0  0  0  0  0  0  0
  -10.3371  -35.5023   22.6904 C   0  0  0  0  0  0  0  0  0  0  0  0
  -10.7268  -35.1530   21.4151 C   0  0  0  0  0  0  0  0  0  0  0  0
  -12.0760  -35.0954   21.1416 C   0  0  0  0  0  0  0  0  0  0  0  0
  -12.4800  -34.4411   20.0563 F   0  0  0  0  0  0  0  0  0  0  0  0
  -13.0225  -35.6210   21.9986 C   0  0  0  0  0  0  0  0  0  0  0  0
  -12.6277  -36.0043   23.2559 C   0  0  0  0  0  0  0  0  0  0  0  0
  -13.5678  -36.3969   24.1276 F   0  0  0  0  0  0  0  0  0  0  0  0
  -11.3222  -35.7480   23.6670 C   0  0  0  0  0  0  0  0  0  0  0  0
  -15.1791  -33.3820   27.8206 C   0  0  0  0  0  0  0  0  0  0  0  0
  -15.3887  -32.3626   28.9205 C   0  0  0  0  0  0  0  0  0  0  0  0
  -15.5427  -33.1173   30.2355 C   0  0  0  0  0  0  0  0  0  0  0  0
  -15.3055  -34.5329   29.9854 N   0  0  0  0  0  0  0  0  0  0  0  0
  -14.2356  -35.1275   30.7856 C   0  0  0  0  0  0  0  0  0  0  0  0
  -14.5890  -35.3632   32.2058 C   0  0  0  0  0  0  0  0  0  0  0  0
  -14.5615  -34.4790   33.2596 C   0  0  0  0  0  0  0  0  0  0  0  0
  -14.7960  -35.1287   34.4270 O   0  0  0  0  0  0  0  0  0  0  0  0
  -14.9880  -36.4746   34.1671 N   0  0  0  0  0  0  0  0  0  0  0  0
  -14.8750  -36.5860   32.8446 C   0  0  0  0  0  0  0  0  0  0  0  0
  -15.0320  -38.2222   31.9380 Br  0  0  0  0  0  0  0  0  0  0  0  0
  -15.1274  -34.7201   28.5259 C   0  0  0  0  0  0  0  0  0  0  0  0
  -15.2663  -30.4920   25.8015 H   0  0  0  0  0  0  0  0  0  0  0  0
  -16.2652  -31.0423   24.4696 H   0  0  0  0  0  0  0  0  0  0  0  0
  -16.6150  -31.5941   26.1052 H   0  0  0  0  0  0  0  0  0  0  0  0
  -16.0423  -33.1204   23.5471 H   0  0  0  0  0  0  0  0  0  0  0  0
  -14.9055  -34.3057   24.1218 H   0  0  0  0  0  0  0  0  0  0  0  0
  -16.3794  -34.0015   25.0485 H   0  0  0  0  0  0  0  0  0  0  0  0
  -12.1435  -33.5732   24.2386 H   0  0  0  0  0  0  0  0  0  0  0  0
  -11.1944  -33.3172   25.6446 H   0  0  0  0  0  0  0  0  0  0  0  0
   -9.5816  -36.3643   26.0148 H   0  0  0  0  0  0  0  0  0  0  0  0
   -9.4583  -34.6238   26.1339 H   0  0  0  0  0  0  0  0  0  0  0  0
   -7.6265  -35.4660   24.6292 H   0  0  0  0  0  0  0  0  0  0  0  0
   -8.1722  -35.4733   22.2780 H   0  0  0  0  0  0  0  0  0  0  0  0
  -10.0252  -34.8182   20.6675 H   0  0  0  0  0  0  0  0  0  0  0  0
  -14.0697  -35.6372   21.7227 H   0  0  0  0  0  0  0  0  0  0  0  0
  -16.1193  -33.4098   27.2560 H   0  0  0  0  0  0  0  0  0  0  0  0
  -14.5837  -31.6593   28.9720 H   0  0  0  0  0  0  0  0  0  0  0  0
  -16.2908  -31.7723   28.7206 H   0  0  0  0  0  0  0  0  0  0  0  0
  -14.9195  -32.6757   31.0180 H   0  0  0  0  0  0  0  0  0  0  0  0
  -16.5769  -33.0109   30.5847 H   0  0  0  0  0  0  0  0  0  0  0  0
  -13.3146  -34.5543   30.7755 H   0  0  0  0  0  0  0  0  0  0  0  0
  -13.9648  -36.0925   30.3408 H   0  0  0  0  0  0  0  0  0  0  0  0
  -14.3640  -33.4219   33.3487 H   0  0  0  0  0  0  0  0  0  0  0  0
  -14.3220  -35.3833   28.2180 H   0  0  0  0  0  0  0  0  0  0  0  0
  -16.0166  -35.2862   28.2111 H   0  0  0  0  0  0  0  0  0  0  0  0
  1  2  1  0
  2  3  1  0
  2  4  1  0
  4  5  2  0
  4  6  2  0
  6  7  1  0
  7  8  1  0
  8  9  1  0
  9 10  1  0
 10 11  2  0
 11 12  1  0
 12 13  2  0
 13 14  1  0
 14 15  1  0
 14 16  2  0
 16 17  1  0
 17 18  1  0
 17 19  2  0
  4 20  1  0
 20 21  1  0
 21 22  1  0
 22 23  1  0
 23 24  1  0
 24 25  1  0
 25 26  2  0
 26 27  1  0
 27 28  1  0
 28 29  2  0
 29 30  1  0
 23 31  1  0
 19  8  1  0
 31 20  1  0
 19 12  1  0
 29 25  1  0
  1 32  1  0
  1 33  1  0
  1 34  1  0
  3 35  1  0
  3 36  1  0
  3 37  1  0
  7 38  1  0
  7 39  1  0
  9 40  1  0
  9 41  1  0
 10 42  1  0
 11 43  1  0
 13 44  1  0
 16 45  1  0
 20 46  1  0
 21 47  1  0
 21 48  1  0
 22 49  1  0
 22 50  1  0
 24 51  1  0
 24 52  1  0
 26 53  1  0
 31 54  1  0
 31 55  1  0
M  END
>  <Energy>  (189) 
-68.818619024997162

>  <compound_id>  (189) 
1226

>  <target_id>  (189) 
1

>  <reference_id>  (189) 
68

>  <inspiration_ids>  (189) 
[138, 68]

>  <energy_score>  (189) 
-18.519998798085737

>  <distance_score>  (189) 
2.564890279347869

>  <path>  (189) 
/opt/xchem-fragalysis-2/maxwin/BulkDock/SCRATCH/505735/C1226-P68/C1226-P68.minimised.mol

>  <scratch_subdir>  (189) 
/opt/xchem-fragalysis-2/maxwin/BulkDock/SCRATCH/505735/C1226-P68

>  <fragmenstein_runtime>  (189) 
5.773719310760498

>  <fragmenstein_outcome>  (189) 
too moved

>  <fragmenstein_mode>  (189) 
expansion

>  <fragmenstein_error>  (189) 


$$$$
C3204-P138
     RDKit          3D

 60 62  0  0  0  0  0  0  0  0999 V2000
  -15.8176  -25.7845   31.9652 C   0  0  0  0  0  0  0  0  0  0  0  0
  -14.7199  -25.4621   31.0219 C   0  0  0  0  0  0  0  0  0  0  0  0
  -14.7282  -25.9153   29.6966 C   0  0  0  0  0  0  0  0  0  0  0  0
  -13.8205  -25.4133   28.7645 C   0  0  0  0  0  0  0  0  0  0  0  0
  -13.7389  -26.0346   27.5203 O   0  0  0  0  0  0  0  0  0  0  0  0
  -12.9648  -27.2557   27.6622 C   0  0  0  0  0  0  0  0  0  0  0  0
  -13.0224  -28.3534   26.5889 C   0  0  0  0  0  0  0  0  0  0  0  0
  -12.6469  -29.7321   27.2044 N   0  0  0  0  0  0  0  0  0  0  0  0
  -13.8768  -30.4586   27.7891 S   0  0  0  0  0  0  0  0  0  0  0  0
  -15.1155  -29.7358   27.9737 O   0  0  0  0  0  0  0  0  0  0  0  0
  -13.6449  -31.2404   29.3340 C   0  0  0  0  0  0  0  0  0  0  0  0
  -12.3586  -31.9481   29.6309 C   0  0  0  0  0  0  0  0  0  0  0  0
  -12.7187  -32.8909   30.7827 C   0  0  0  0  0  0  0  0  0  0  0  0
  -14.1845  -32.9805   30.8289 N   0  0  0  0  0  0  0  0  0  0  0  0
  -14.7012  -34.3491   30.9501 C   0  0  0  0  0  0  0  0  0  0  0  0
  -14.4797  -34.8657   32.3242 C   0  0  0  0  0  0  0  0  0  0  0  0
  -14.8640  -34.2729   33.5055 C   0  0  0  0  0  0  0  0  0  0  0  0
  -14.4864  -35.0313   34.5603 O   0  0  0  0  0  0  0  0  0  0  0  0
  -13.8644  -36.1778   34.0939 N   0  0  0  0  0  0  0  0  0  0  0  0
  -13.8900  -36.0708   32.7642 C   0  0  0  0  0  0  0  0  0  0  0  0
  -13.1970  -37.4007   31.6307 Br  0  0  0  0  0  0  0  0  0  0  0  0
  -14.6957  -32.2957   29.6324 C   0  0  0  0  0  0  0  0  0  0  0  0
  -14.2284  -31.5177   26.5158 N   0  0  0  0  0  0  0  0  0  0  0  0
  -15.5478  -31.5120   25.9140 C   0  0  0  0  0  0  0  0  0  0  0  0
  -13.5192  -32.7561   26.2796 C   0  0  0  0  0  0  0  0  0  0  0  0
  -13.0316  -24.3171   29.1319 C   0  0  0  0  0  0  0  0  0  0  0  0
  -13.0386  -23.9098   30.4804 C   0  0  0  0  0  0  0  0  0  0  0  0
  -12.5746  -22.3038   30.9866 S   0  0  0  0  0  0  0  0  0  0  0  0
  -14.0525  -21.8223   31.7015 N   0  0  0  0  0  0  0  0  0  0  0  0
  -11.6647  -22.3600   32.0932 O   0  0  0  0  0  0  0  0  0  0  0  0
  -12.3420  -21.4938   29.8118 O   0  0  0  0  0  0  0  0  0  0  0  0
  -13.7611  -24.5777   31.4496 C   0  0  0  0  0  0  0  0  0  0  0  0
  -16.7216  -25.2313   31.6888 H   0  0  0  0  0  0  0  0  0  0  0  0
  -16.0449  -26.8556   31.9367 H   0  0  0  0  0  0  0  0  0  0  0  0
  -15.5782  -25.5291   33.0031 H   0  0  0  0  0  0  0  0  0  0  0  0
  -15.4500  -26.6686   29.3873 H   0  0  0  0  0  0  0  0  0  0  0  0
  -13.2306  -27.7470   28.6034 H   0  0  0  0  0  0  0  0  0  0  0  0
  -11.9220  -26.9375   27.6578 H   0  0  0  0  0  0  0  0  0  0  0  0
  -12.2867  -28.1219   25.8109 H   0  0  0  0  0  0  0  0  0  0  0  0
  -13.9968  -28.3855   26.0894 H   0  0  0  0  0  0  0  0  0  0  0  0
  -13.7535  -30.4297   30.0713 H   0  0  0  0  0  0  0  0  0  0  0  0
  -12.0008  -32.5201   28.7702 H   0  0  0  0  0  0  0  0  0  0  0  0
  -11.5863  -31.2345   29.9231 H   0  0  0  0  0  0  0  0  0  0  0  0
  -12.2242  -33.8577   30.6345 H   0  0  0  0  0  0  0  0  0  0  0  0
  -12.3637  -32.4727   31.7305 H   0  0  0  0  0  0  0  0  0  0  0  0
  -14.2644  -35.0001   30.1845 H   0  0  0  0  0  0  0  0  0  0  0  0
  -15.7858  -34.3456   30.7769 H   0  0  0  0  0  0  0  0  0  0  0  0
  -15.3812  -33.3540   33.7350 H   0  0  0  0  0  0  0  0  0  0  0  0
  -14.8070  -32.9991   28.8024 H   0  0  0  0  0  0  0  0  0  0  0  0
  -15.6768  -31.8503   29.8286 H   0  0  0  0  0  0  0  0  0  0  0  0
  -16.2799  -31.9900   26.5732 H   0  0  0  0  0  0  0  0  0  0  0  0
  -15.5634  -32.0360   24.9515 H   0  0  0  0  0  0  0  0  0  0  0  0
  -15.8852  -30.4920   25.7002 H   0  0  0  0  0  0  0  0  0  0  0  0
  -13.5528  -33.0428   25.2223 H   0  0  0  0  0  0  0  0  0  0  0  0
  -13.9275  -33.5817   26.8687 H   0  0  0  0  0  0  0  0  0  0  0  0
  -12.4579  -32.6524   26.5261 H   0  0  0  0  0  0  0  0  0  0  0  0
  -12.4418  -23.7891   28.3876 H   0  0  0  0  0  0  0  0  0  0  0  0
  -13.9055  -21.8719   32.7143 H   0  0  0  0  0  0  0  0  0  0  0  0
  -14.8452  -22.3894   31.3864 H   0  0  0  0  0  0  0  0  0  0  0  0
  -13.7278  -24.2697   32.4928 H   0  0  0  0  0  0  0  0  0  0  0  0
  1  2  1  0
  2  3  2  0
  3  4  1  0
  4  5  1  0
  5  6  1  0
  6  7  1  0
  7  8  1  0
  8  9  2  0
  9 10  2  0
  9 11  1  0
 11 12  1  0
 12 13  1  0
 13 14  1  0
 14 15  1  0
 15 16  1  0
 16 17  2  0
 17 18  1  0
 18 19  1  0
 19 20  2  0
 20 21  1  0
 14 22  1  0
  9 23  1  0
 23 24  1  0
 23 25  1  0
  4 26  2  0
 26 27  1  0
 27 28  1  0
 28 29  1  0
 28 30  2  0
 28 31  2  0
 27 32  2  0
 32  2  1  0
 22 11  1  0
 20 16  1  0
  1 33  1  0
  1 34  1  0
  1 35  1  0
  3 36  1  0
  6 37  1  0
  6 38  1  0
  7 39  1  0
  7 40  1  0
 11 41  1  0
 12 42  1  0
 12 43  1  0
 13 44  1  0
 13 45  1  0
 15 46  1  0
 15 47  1  0
 17 48  1  0
 22 49  1  0
 22 50  1  0
 24 51  1  0
 24 52  1  0
 24 53  1  0
 25 54  1  0
 25 55  1  0
 25 56  1  0
 26 57  1  0
 29 58  1  0
 29 59  1  0
 32 60  1  0
M  END
>  <Energy>  (190) 
-88.889538520200105

>  <compound_id>  (190) 
3204

>  <target_id>  (190) 
1

>  <reference_id>  (190) 
138

>  <inspiration_ids>  (190) 
[138, 82]

>  <energy_score>  (190) 
-52.70506029528704

>  <distance_score>  (190) 
2.2858227747593496

>  <path>  (190) 
/opt/xchem-fragalysis-2/maxwin/BulkDock/SCRATCH/505735/C3204-P138/C3204-P138.minimised.mol

>  <scratch_subdir>  (190) 
/opt/xchem-fragalysis-2/maxwin/BulkDock/SCRATCH/505735/C3204-P138

>  <fragmenstein_runtime>  (190) 
7.355529069900513

>  <fragmenstein_outcome>  (190) 
too moved

>  <fragmenstein_mode>  (190) 
expansion

>  <fragmenstein_error>  (190) 


$$$$
C3204-P82
     RDKit          3D

 60 62  0  0  0  0  0  0  0  0999 V2000
  -12.3505  -22.3047   29.7581 C   0  0  0  0  0  0  0  0  0  0  0  0
  -12.0075  -23.7378   29.9346 C   0  0  0  0  0  0  0  0  0  0  0  0
  -11.8633  -24.6427   28.8687 C   0  0  0  0  0  0  0  0  0  0  0  0
  -11.3476  -25.9197   29.0864 C   0  0  0  0  0  0  0  0  0  0  0  0
  -11.2131  -26.7748   28.0027 O   0  0  0  0  0  0  0  0  0  0  0  0
  -12.2591  -27.7719   28.0063 C   0  0  0  0  0  0  0  0  0  0  0  0
  -12.1588  -28.9553   26.9876 C   0  0  0  0  0  0  0  0  0  0  0  0
  -12.5982  -30.3007   27.5923 N   0  0  0  0  0  0  0  0  0  0  0  0
  -14.1043  -30.3905   27.8998 S   0  0  0  0  0  0  0  0  0  0  0  0
  -14.8766  -29.1664   27.8435 O   0  0  0  0  0  0  0  0  0  0  0  0
  -14.5827  -31.1326   29.4253 C   0  0  0  0  0  0  0  0  0  0  0  0
  -13.5486  -31.3140   30.5003 C   0  0  0  0  0  0  0  0  0  0  0  0
  -14.1273  -32.4032   31.3975 C   0  0  0  0  0  0  0  0  0  0  0  0
  -15.2876  -32.9906   30.7195 N   0  0  0  0  0  0  0  0  0  0  0  0
  -15.4239  -34.4602   30.7519 C   0  0  0  0  0  0  0  0  0  0  0  0
  -15.4454  -35.0639   32.1117 C   0  0  0  0  0  0  0  0  0  0  0  0
  -16.1303  -34.6362   33.2282 C   0  0  0  0  0  0  0  0  0  0  0  0
  -15.9194  -35.4843   34.2658 O   0  0  0  0  0  0  0  0  0  0  0  0
  -15.1069  -36.5269   33.8500 N   0  0  0  0  0  0  0  0  0  0  0  0
  -14.8390  -36.2658   32.5684 C   0  0  0  0  0  0  0  0  0  0  0  0
  -13.7131  -37.3883   31.5559 Br  0  0  0  0  0  0  0  0  0  0  0  0
  -15.2845  -32.4719   29.3343 C   0  0  0  0  0  0  0  0  0  0  0  0
  -14.7377  -31.3076   26.5983 N   0  0  0  0  0  0  0  0  0  0  0  0
  -15.4405  -30.5795   25.5493 C   0  0  0  0  0  0  0  0  0  0  0  0
  -13.9661  -32.3950   26.0084 C   0  0  0  0  0  0  0  0  0  0  0  0
  -10.8346  -26.2210   30.3456 C   0  0  0  0  0  0  0  0  0  0  0  0
  -11.0105  -25.2931   31.3873 C   0  0  0  0  0  0  0  0  0  0  0  0
   -9.9135  -25.2086   32.7337 S   0  0  0  0  0  0  0  0  0  0  0  0
   -8.5553  -25.8735   32.1033 N   0  0  0  0  0  0  0  0  0  0  0  0
  -10.3913  -25.9608   33.8651 O   0  0  0  0  0  0  0  0  0  0  0  0
   -9.5460  -23.8187   32.8485 O   0  0  0  0  0  0  0  0  0  0  0  0
  -11.7205  -24.1237   31.2222 C   0  0  0  0  0  0  0  0  0  0  0  0
  -12.4995  -22.0747   28.7021 H   0  0  0  0  0  0  0  0  0  0  0  0
  -13.2335  -22.0668   30.3538 H   0  0  0  0  0  0  0  0  0  0  0  0
  -11.5277  -21.6688   30.0987 H   0  0  0  0  0  0  0  0  0  0  0  0
  -12.1368  -24.3390   27.8616 H   0  0  0  0  0  0  0  0  0  0  0  0
  -12.2947  -28.2054   29.0067 H   0  0  0  0  0  0  0  0  0  0  0  0
  -13.1830  -27.2408   27.7672 H   0  0  0  0  0  0  0  0  0  0  0  0
  -11.1609  -29.0734   26.5718 H   0  0  0  0  0  0  0  0  0  0  0  0
  -12.7917  -28.7318   26.1186 H   0  0  0  0  0  0  0  0  0  0  0  0
  -15.3244  -30.4299   29.8381 H   0  0  0  0  0  0  0  0  0  0  0  0
  -12.5818  -31.6039   30.1196 H   0  0  0  0  0  0  0  0  0  0  0  0
  -13.3670  -30.3936   31.0473 H   0  0  0  0  0  0  0  0  0  0  0  0
  -13.3587  -33.1341   31.6319 H   0  0  0  0  0  0  0  0  0  0  0  0
  -14.4661  -31.9536   32.3371 H   0  0  0  0  0  0  0  0  0  0  0  0
  -14.6680  -34.9537   30.1414 H   0  0  0  0  0  0  0  0  0  0  0  0
  -16.3849  -34.7113   30.2818 H   0  0  0  0  0  0  0  0  0  0  0  0
  -16.7736  -33.7930   33.4351 H   0  0  0  0  0  0  0  0  0  0  0  0
  -14.7735  -33.1499   28.6500 H   0  0  0  0  0  0  0  0  0  0  0  0
  -16.3122  -32.3592   28.9711 H   0  0  0  0  0  0  0  0  0  0  0  0
  -16.2801  -30.0113   25.9643 H   0  0  0  0  0  0  0  0  0  0  0  0
  -15.8810  -31.2528   24.8050 H   0  0  0  0  0  0  0  0  0  0  0  0
  -14.7768  -29.8803   25.0330 H   0  0  0  0  0  0  0  0  0  0  0  0
  -13.0995  -32.0291   25.4515 H   0  0  0  0  0  0  0  0  0  0  0  0
  -14.5793  -33.0011   25.3318 H   0  0  0  0  0  0  0  0  0  0  0  0
  -13.6171  -33.0792   26.7809 H   0  0  0  0  0  0  0  0  0  0  0  0
  -10.2421  -27.1167   30.4987 H   0  0  0  0  0  0  0  0  0  0  0  0
   -7.7023  -25.3723   32.3248 H   0  0  0  0  0  0  0  0  0  0  0  0
   -8.4883  -26.8712   32.3270 H   0  0  0  0  0  0  0  0  0  0  0  0
  -11.8328  -23.4140   32.0403 H   0  0  0  0  0  0  0  0  0  0  0  0
  1  2  1  0
  2  3  2  0
  3  4  1  0
  4  5  1  0
  5  6  1  0
  6  7  1  0
  7  8  1  0
  8  9  2  0
  9 10  2  0
  9 11  1  0
 11 12  1  0
 12 13  1  0
 13 14  1  0
 14 15  1  0
 15 16  1  0
 16 17  2  0
 17 18  1  0
 18 19  1  0
 19 20  2  0
 20 21  1  0
 14 22  1  0
  9 23  1  0
 23 24  1  0
 23 25  1  0
  4 26  2  0
 26 27  1  0
 27 28  1  0
 28 29  1  0
 28 30  2  0
 28 31  2  0
 27 32  2  0
 32  2  1  0
 22 11  1  0
 20 16  1  0
  1 33  1  0
  1 34  1  0
  1 35  1  0
  3 36  1  0
  6 37  1  0
  6 38  1  0
  7 39  1  0
  7 40  1  0
 11 41  1  0
 12 42  1  0
 12 43  1  0
 13 44  1  0
 13 45  1  0
 15 46  1  0
 15 47  1  0
 17 48  1  0
 22 49  1  0
 22 50  1  0
 24 51  1  0
 24 52  1  0
 24 53  1  0
 25 54  1  0
 25 55  1  0
 25 56  1  0
 26 57  1  0
 29 58  1  0
 29 59  1  0
 32 60  1  0
M  END
>  <Energy>  (191) 
-89.675134831439053

>  <compound_id>  (191) 
3204

>  <target_id>  (191) 
1

>  <reference_id>  (191) 
82

>  <inspiration_ids>  (191) 
[138, 82]

>  <energy_score>  (191) 
-53.49065660652553

>  <distance_score>  (191) 
1.5586639473703585

>  <path>  (191) 
/opt/xchem-fragalysis-2/maxwin/BulkDock/SCRATCH/505735/C3204-P82/C3204-P82.minimised.mol

>  <scratch_subdir>  (191) 
/opt/xchem-fragalysis-2/maxwin/BulkDock/SCRATCH/505735/C3204-P82

>  <fragmenstein_runtime>  (191) 
7.05342435836792

>  <fragmenstein_outcome>  (191) 
too moved

>  <fragmenstein_mode>  (191) 
expansion

>  <fragmenstein_error>  (191) 


$$$$
C3316-P138
     RDKit          3D

 61 63  0  0  0  0  0  0  0  0999 V2000
  -14.2083  -28.5496   28.6028 C   0  0  0  0  0  0  0  0  0  0  0  0
  -14.5266  -29.9603   28.3975 N   0  0  0  0  0  0  0  0  0  0  0  0
  -15.1637  -30.1067   27.0869 C   0  0  0  0  0  0  0  0  0  0  0  0
  -13.3375  -31.1168   28.8245 S   0  0  0  0  0  0  0  0  0  0  0  0
  -12.5932  -31.3011   27.5894 O   0  0  0  0  0  0  0  0  0  0  0  0
  -12.6676  -30.6181   30.1408 N   0  0  0  0  0  0  0  0  0  0  0  0
  -11.1782  -30.8023   30.1302 C   0  0  0  0  0  0  0  0  0  0  0  0
  -10.2428  -30.2766   31.3425 C   0  0  0  0  0  0  0  0  0  0  0  0
   -8.5259  -29.5919   32.0021 C   0  0  0  0  0  0  0  0  0  0  0  0
   -7.2602  -28.2223   31.4023 O   0  0  0  0  0  0  0  0  0  0  0  0
   -7.2140  -26.2247   31.4196 C   0  0  0  0  0  0  0  0  0  0  0  0
   -6.5218  -25.6248   30.4366 F   0  0  0  0  0  0  0  0  0  0  0  0
   -9.1479  -24.6993   31.4753 S   0  0  0  0  0  0  0  0  0  0  0  0
  -10.6555  -23.2907   32.2847 C   0  0  0  0  0  0  0  0  0  0  0  0
  -11.9786  -23.3529   31.6680 C   0  0  0  0  0  0  0  0  0  0  0  0
  -13.0624  -22.5962   32.1415 C   0  0  0  0  0  0  0  0  0  0  0  0
  -12.8779  -21.6503   33.1408 C   0  0  0  0  0  0  0  0  0  0  0  0
  -13.9730  -21.0893   33.8022 N   0  0  0  0  0  0  0  0  0  0  0  0
  -11.5833  -21.4237   33.5959 C   0  0  0  0  0  0  0  0  0  0  0  0
  -10.4878  -22.2033   33.1465 C   0  0  0  0  0  0  0  0  0  0  0  0
  -14.1954  -32.6450   29.1079 C   0  0  0  0  0  0  0  0  0  0  0  0
  -13.2332  -33.7809   29.3916 C   0  0  0  0  0  0  0  0  0  0  0  0
  -13.1998  -33.8232   30.8999 C   0  0  0  0  0  0  0  0  0  0  0  0
  -14.5732  -33.5185   31.3146 N   0  0  0  0  0  0  0  0  0  0  0  0
  -15.3872  -34.7086   31.5397 C   0  0  0  0  0  0  0  0  0  0  0  0
  -14.8802  -35.3170   32.7915 C   0  0  0  0  0  0  0  0  0  0  0  0
  -14.9094  -34.7462   34.0427 C   0  0  0  0  0  0  0  0  0  0  0  0
  -14.2189  -35.5090   34.9190 O   0  0  0  0  0  0  0  0  0  0  0  0
  -13.7514  -36.6372   34.2657 N   0  0  0  0  0  0  0  0  0  0  0  0
  -14.1704  -36.5135   33.0061 C   0  0  0  0  0  0  0  0  0  0  0  0
  -13.7796  -37.7738   31.6673 Br  0  0  0  0  0  0  0  0  0  0  0  0
  -15.1225  -32.5921   30.3111 C   0  0  0  0  0  0  0  0  0  0  0  0
  -15.0681  -27.9062   28.3834 H   0  0  0  0  0  0  0  0  0  0  0  0
  -13.3681  -28.2339   27.9747 H   0  0  0  0  0  0  0  0  0  0  0  0
  -13.9515  -28.3564   29.6491 H   0  0  0  0  0  0  0  0  0  0  0  0
  -15.5189  -31.1303   26.9347 H   0  0  0  0  0  0  0  0  0  0  0  0
  -16.0460  -29.4620   27.0032 H   0  0  0  0  0  0  0  0  0  0  0  0
  -14.4748  -29.8604   26.2712 H   0  0  0  0  0  0  0  0  0  0  0  0
  -11.1239  -31.8831   30.0727 H   0  0  0  0  0  0  0  0  0  0  0  0
  -10.9127  -30.3165   29.1899 H   0  0  0  0  0  0  0  0  0  0  0  0
  -10.4284  -31.0541   32.0996 H   0  0  0  0  0  0  0  0  0  0  0  0
  -10.9255  -29.4634   31.4756 H   0  0  0  0  0  0  0  0  0  0  0  0
   -8.1715  -30.5347   32.1211 H   0  0  0  0  0  0  0  0  0  0  0  0
   -9.0381  -28.8327   32.5347 H   0  0  0  0  0  0  0  0  0  0  0  0
   -6.5685  -26.0006   32.2886 H   0  0  0  0  0  0  0  0  0  0  0  0
  -12.2180  -24.0301   30.8544 H   0  0  0  0  0  0  0  0  0  0  0  0
  -14.0530  -22.7979   31.7433 H   0  0  0  0  0  0  0  0  0  0  0  0
  -14.8485  -21.1063   33.2957 H   0  0  0  0  0  0  0  0  0  0  0  0
  -13.7687  -20.2400   34.3161 H   0  0  0  0  0  0  0  0  0  0  0  0
  -11.3898  -20.6653   34.3496 H   0  0  0  0  0  0  0  0  0  0  0  0
   -9.5643  -21.8676   33.5251 H   0  0  0  0  0  0  0  0  0  0  0  0
  -14.7505  -32.8645   28.1898 H   0  0  0  0  0  0  0  0  0  0  0  0
  -12.2391  -33.6544   28.9544 H   0  0  0  0  0  0  0  0  0  0  0  0
  -13.6471  -34.7202   29.0036 H   0  0  0  0  0  0  0  0  0  0  0  0
  -12.8095  -34.7819   31.2456 H   0  0  0  0  0  0  0  0  0  0  0  0
  -12.5367  -33.0603   31.3145 H   0  0  0  0  0  0  0  0  0  0  0  0
  -15.3649  -35.3959   30.6879 H   0  0  0  0  0  0  0  0  0  0  0  0
  -16.4361  -34.4289   31.7015 H   0  0  0  0  0  0  0  0  0  0  0  0
  -15.3242  -33.8260   34.4220 H   0  0  0  0  0  0  0  0  0  0  0  0
  -15.2029  -31.5926   30.7510 H   0  0  0  0  0  0  0  0  0  0  0  0
  -16.1381  -32.8792   30.0122 H   0  0  0  0  0  0  0  0  0  0  0  0
  1  2  1  0
  2  3  1  0
  2  4  1  0
  4  5  2  0
  4  6  2  0
  6  7  1  0
  7  8  1  0
  8  9  1  0
  9 10  1  0
 10 11  1  0
 11 12  1  0
 11 13  1  0
 13 14  1  0
 14 15  2  0
 15 16  1  0
 16 17  2  0
 17 18  1  0
 17 19  1  0
 19 20  2  0
  4 21  1  0
 21 22  1  0
 22 23  1  0
 23 24  1  0
 24 25  1  0
 25 26  1  0
 26 27  2  0
 27 28  1  0
 28 29  1  0
 29 30  2  0
 30 31  1  0
 24 32  1  0
 20 14  1  0
 32 21  1  0
 30 26  1  0
  1 33  1  0
  1 34  1  0
  1 35  1  0
  3 36  1  0
  3 37  1  0
  3 38  1  0
  7 39  1  0
  7 40  1  0
  8 41  1  0
  8 42  1  0
  9 43  1  0
  9 44  1  0
 11 45  1  0
 15 46  1  0
 16 47  1  0
 18 48  1  0
 18 49  1  0
 19 50  1  0
 20 51  1  0
 21 52  1  0
 22 53  1  0
 22 54  1  0
 23 55  1  0
 23 56  1  0
 25 57  1  0
 25 58  1  0
 27 59  1  0
 32 60  1  0
 32 61  1  0
M  END
>  <Energy>  (192) 
453.51045848319671

>  <compound_id>  (192) 
3316

>  <target_id>  (192) 
1

>  <reference_id>  (192) 
138

>  <inspiration_ids>  (192) 
[138, 88]

>  <energy_score>  (192) 
463.5306958814672

>  <distance_score>  (192) 
2.4281638113063835

>  <path>  (192) 
/opt/xchem-fragalysis-2/maxwin/BulkDock/SCRATCH/505735/C3316-P138/C3316-P138.minimised.mol

>  <scratch_subdir>  (192) 
/opt/xchem-fragalysis-2/maxwin/BulkDock/SCRATCH/505735/C3316-P138

>  <fragmenstein_runtime>  (192) 
25.65534210205078

>  <fragmenstein_outcome>  (192) 
too moved

>  <fragmenstein_mode>  (192) 
expansion

>  <fragmenstein_error>  (192) 


$$$$
C3316-P88
     RDKit          3D

 61 63  0  0  0  0  0  0  0  0999 V2000
  -15.1415  -30.3654   26.8609 C   0  0  0  0  0  0  0  0  0  0  0  0
  -14.3124  -31.5411   27.0600 N   0  0  0  0  0  0  0  0  0  0  0  0
  -14.3438  -32.4161   25.8911 C   0  0  0  0  0  0  0  0  0  0  0  0
  -12.8697  -31.4825   27.9948 S   0  0  0  0  0  0  0  0  0  0  0  0
  -12.0166  -32.4480   27.3263 O   0  0  0  0  0  0  0  0  0  0  0  0
  -12.4832  -29.9977   28.0329 N   0  0  0  0  0  0  0  0  0  0  0  0
  -12.8851  -28.9971   29.0046 C   0  0  0  0  0  0  0  0  0  0  0  0
  -12.5100  -27.6058   28.5088 C   0  0  0  0  0  0  0  0  0  0  0  0
  -12.9104  -26.5662   29.5516 C   0  0  0  0  0  0  0  0  0  0  0  0
  -12.5401  -25.2315   29.2251 O   0  0  0  0  0  0  0  0  0  0  0  0
  -11.1404  -25.0455   29.0647 C   0  0  0  0  0  0  0  0  0  0  0  0
  -10.5261  -25.8534   29.9620 F   0  0  0  0  0  0  0  0  0  0  0  0
  -10.6389  -23.3247   29.2997 S   0  0  0  0  0  0  0  0  0  0  0  0
  -10.3593  -23.2751   31.0516 C   0  0  0  0  0  0  0  0  0  0  0  0
  -11.1220  -22.4567   31.8813 C   0  0  0  0  0  0  0  0  0  0  0  0
  -10.8236  -22.3713   33.2427 C   0  0  0  0  0  0  0  0  0  0  0  0
   -9.7319  -23.0618   33.7672 C   0  0  0  0  0  0  0  0  0  0  0  0
   -9.4490  -23.0287   35.1369 N   0  0  0  0  0  0  0  0  0  0  0  0
   -8.9746  -23.8854   32.9433 C   0  0  0  0  0  0  0  0  0  0  0  0
   -9.2951  -23.9907   31.5957 C   0  0  0  0  0  0  0  0  0  0  0  0
  -13.2232  -32.2149   29.5555 C   0  0  0  0  0  0  0  0  0  0  0  0
  -13.6654  -31.3720   30.7195 C   0  0  0  0  0  0  0  0  0  0  0  0
  -14.0541  -32.4347   31.7332 C   0  0  0  0  0  0  0  0  0  0  0  0
  -14.6626  -33.5292   30.9500 N   0  0  0  0  0  0  0  0  0  0  0  0
  -14.1049  -34.8509   31.2840 C   0  0  0  0  0  0  0  0  0  0  0  0
  -14.3501  -35.2925   32.6816 C   0  0  0  0  0  0  0  0  0  0  0  0
  -15.0711  -34.7211   33.7057 C   0  0  0  0  0  0  0  0  0  0  0  0
  -14.9699  -35.4719   34.8305 O   0  0  0  0  0  0  0  0  0  0  0  0
  -14.2062  -36.5961   34.5625 N   0  0  0  0  0  0  0  0  0  0  0  0
  -13.8646  -36.4793   33.2800 C   0  0  0  0  0  0  0  0  0  0  0  0
  -12.8562  -37.7837   32.3695 Br  0  0  0  0  0  0  0  0  0  0  0  0
  -14.3537  -33.2304   29.5223 C   0  0  0  0  0  0  0  0  0  0  0  0
  -14.6238  -29.5756   26.3159 H   0  0  0  0  0  0  0  0  0  0  0  0
  -15.4582  -29.9622   27.8276 H   0  0  0  0  0  0  0  0  0  0  0  0
  -16.0696  -30.5982   26.3266 H   0  0  0  0  0  0  0  0  0  0  0  0
  -14.0779  -33.4409   26.1730 H   0  0  0  0  0  0  0  0  0  0  0  0
  -15.3427  -32.4792   25.4456 H   0  0  0  0  0  0  0  0  0  0  0  0
  -13.6399  -32.0801   25.1265 H   0  0  0  0  0  0  0  0  0  0  0  0
  -13.9600  -29.0319   29.1933 H   0  0  0  0  0  0  0  0  0  0  0  0
  -12.3487  -29.1651   29.9410 H   0  0  0  0  0  0  0  0  0  0  0  0
  -11.4314  -27.5633   28.3292 H   0  0  0  0  0  0  0  0  0  0  0  0
  -12.9910  -27.3778   27.5497 H   0  0  0  0  0  0  0  0  0  0  0  0
  -14.0012  -26.5694   29.6583 H   0  0  0  0  0  0  0  0  0  0  0  0
  -12.5044  -26.8195   30.5387 H   0  0  0  0  0  0  0  0  0  0  0  0
  -10.8470  -25.3551   28.0572 H   0  0  0  0  0  0  0  0  0  0  0  0
  -11.9694  -21.8986   31.4898 H   0  0  0  0  0  0  0  0  0  0  0  0
  -11.4591  -21.7618   33.8814 H   0  0  0  0  0  0  0  0  0  0  0  0
  -10.0372  -22.3527   35.6302 H   0  0  0  0  0  0  0  0  0  0  0  0
   -8.4481  -22.8785   35.2481 H   0  0  0  0  0  0  0  0  0  0  0  0
   -8.1347  -24.4515   33.3370 H   0  0  0  0  0  0  0  0  0  0  0  0
   -8.7084  -24.6435   30.9604 H   0  0  0  0  0  0  0  0  0  0  0  0
  -12.3027  -32.7427   29.8318 H   0  0  0  0  0  0  0  0  0  0  0  0
  -14.5389  -30.7599   30.4670 H   0  0  0  0  0  0  0  0  0  0  0  0
  -12.8910  -30.7250   31.1223 H   0  0  0  0  0  0  0  0  0  0  0  0
  -13.1591  -32.7607   32.2767 H   0  0  0  0  0  0  0  0  0  0  0  0
  -14.7648  -32.0289   32.4596 H   0  0  0  0  0  0  0  0  0  0  0  0
  -13.0244  -34.8675   31.0859 H   0  0  0  0  0  0  0  0  0  0  0  0
  -14.5681  -35.5965   30.6236 H   0  0  0  0  0  0  0  0  0  0  0  0
  -15.6705  -33.8283   33.8008 H   0  0  0  0  0  0  0  0  0  0  0  0
  -15.2666  -32.8070   29.0877 H   0  0  0  0  0  0  0  0  0  0  0  0
  -14.0999  -34.1154   28.9267 H   0  0  0  0  0  0  0  0  0  0  0  0
  1  2  1  0
  2  3  1  0
  2  4  1  0
  4  5  2  0
  4  6  2  0
  6  7  1  0
  7  8  1  0
  8  9  1  0
  9 10  1  0
 10 11  1  0
 11 12  1  0
 11 13  1  0
 13 14  1  0
 14 15  2  0
 15 16  1  0
 16 17  2  0
 17 18  1  0
 17 19  1  0
 19 20  2  0
  4 21  1  0
 21 22  1  0
 22 23  1  0
 23 24  1  0
 24 25  1  0
 25 26  1  0
 26 27  2  0
 27 28  1  0
 28 29  1  0
 29 30  2  0
 30 31  1  0
 24 32  1  0
 20 14  1  0
 32 21  1  0
 30 26  1  0
  1 33  1  0
  1 34  1  0
  1 35  1  0
  3 36  1  0
  3 37  1  0
  3 38  1  0
  7 39  1  0
  7 40  1  0
  8 41  1  0
  8 42  1  0
  9 43  1  0
  9 44  1  0
 11 45  1  0
 15 46  1  0
 16 47  1  0
 18 48  1  0
 18 49  1  0
 19 50  1  0
 20 51  1  0
 21 52  1  0
 22 53  1  0
 22 54  1  0
 23 55  1  0
 23 56  1  0
 25 57  1  0
 25 58  1  0
 27 59  1  0
 32 60  1  0
 32 61  1  0
M  END
>  <Energy>  (193) 
-67.938488568539256

>  <compound_id>  (193) 
3316

>  <target_id>  (193) 
1

>  <reference_id>  (193) 
88

>  <inspiration_ids>  (193) 
[138, 88]

>  <energy_score>  (193) 
-61.07070475705329

>  <distance_score>  (193) 
0.7749276853558362

>  <path>  (193) 
/opt/xchem-fragalysis-2/maxwin/BulkDock/SCRATCH/505735/C3316-P88/C3316-P88.minimised.mol

>  <scratch_subdir>  (193) 
/opt/xchem-fragalysis-2/maxwin/BulkDock/SCRATCH/505735/C3316-P88

>  <fragmenstein_runtime>  (193) 
20.691908597946167

>  <fragmenstein_outcome>  (193) 
acceptable

>  <fragmenstein_mode>  (193) 
expansion

>  <fragmenstein_error>  (193) 


$$$$
C3977-P138
     RDKit          3D

 52 57  0  0  0  0  0  0  0  0999 V2000
  -15.5351  -26.3350   26.9241 O   0  0  0  0  0  0  0  0  0  0  0  0
  -14.4601  -26.8032   27.2663 C   0  0  0  0  0  0  0  0  0  0  0  0
  -13.1966  -26.0388   27.1430 C   0  0  0  0  0  0  0  0  0  0  0  0
  -13.1694  -24.7262   27.6242 C   0  0  0  0  0  0  0  0  0  0  0  0
  -12.0064  -23.9615   27.5678 C   0  0  0  0  0  0  0  0  0  0  0  0
  -10.8462  -24.5333   27.0683 C   0  0  0  0  0  0  0  0  0  0  0  0
  -10.8523  -25.8534   26.6354 C   0  0  0  0  0  0  0  0  0  0  0  0
  -12.0317  -26.6270   26.6742 C   0  0  0  0  0  0  0  0  0  0  0  0
  -11.9673  -28.0165   26.1193 C   0  0  0  0  0  0  0  0  0  0  0  0
  -11.7573  -27.8989   24.7792 F   0  0  0  0  0  0  0  0  0  0  0  0
  -10.8621  -28.6747   26.5786 F   0  0  0  0  0  0  0  0  0  0  0  0
  -13.0356  -28.9760   26.2428 O   0  0  0  0  0  0  0  0  0  0  0  0
  -13.5267  -29.0985   27.5069 C   0  0  0  0  0  0  0  0  0  0  0  0
  -14.3753  -28.0992   27.9611 C   0  0  0  0  0  0  0  0  0  0  0  0
  -14.9416  -28.1535   29.2213 C   0  0  0  0  0  0  0  0  0  0  0  0
  -14.6158  -29.2222   30.0388 C   0  0  0  0  0  0  0  0  0  0  0  0
  -13.7729  -30.2883   29.6160 C   0  0  0  0  0  0  0  0  0  0  0  0
  -13.4574  -31.3287   30.6839 C   0  0  0  0  0  0  0  0  0  0  0  0
  -12.9988  -32.7712   30.3641 C   0  0  0  0  0  0  0  0  0  0  0  0
  -14.1228  -33.7311   30.2211 N   0  0  0  0  0  0  0  0  0  0  0  0
  -14.0817  -34.9976   30.8122 C   0  0  0  0  0  0  0  0  0  0  0  0
  -14.0164  -36.1131   30.0533 C   0  0  0  0  0  0  0  0  0  0  0  0
  -13.9720  -37.4253   30.6733 C   0  0  0  0  0  0  0  0  0  0  0  0
  -13.9815  -37.5691   32.0102 C   0  0  0  0  0  0  0  0  0  0  0  0
  -14.0425  -36.4184   32.8389 C   0  0  0  0  0  0  0  0  0  0  0  0
  -14.0564  -36.2625   34.1462 N   0  0  0  0  0  0  0  0  0  0  0  0
  -14.1762  -34.9177   34.4144 N   0  0  0  0  0  0  0  0  0  0  0  0
  -14.2003  -34.2915   33.2598 C   0  0  0  0  0  0  0  0  0  0  0  0
  -14.1088  -35.1770   32.2175 N   0  0  0  0  0  0  0  0  0  0  0  0
  -15.4086  -33.0828   29.9416 C   0  0  0  0  0  0  0  0  0  0  0  0
  -15.7378  -32.0768   31.0481 C   0  0  0  0  0  0  0  0  0  0  0  0
  -14.5825  -31.4150   31.6000 O   0  0  0  0  0  0  0  0  0  0  0  0
  -13.2290  -30.2037   28.3249 C   0  0  0  0  0  0  0  0  0  0  0  0
  -12.3391  -31.1382   27.8773 O   0  0  0  0  0  0  0  0  0  0  0  0
  -14.0509  -24.3197   28.1078 H   0  0  0  0  0  0  0  0  0  0  0  0
  -11.9980  -22.9383   27.9370 H   0  0  0  0  0  0  0  0  0  0  0  0
   -9.9158  -23.9763   27.0512 H   0  0  0  0  0  0  0  0  0  0  0  0
   -9.9224  -26.2764   26.2556 H   0  0  0  0  0  0  0  0  0  0  0  0
  -15.5556  -27.3387   29.6003 H   0  0  0  0  0  0  0  0  0  0  0  0
  -15.0066  -29.1959   31.0578 H   0  0  0  0  0  0  0  0  0  0  0  0
  -12.6359  -30.8785   31.2571 H   0  0  0  0  0  0  0  0  0  0  0  0
  -12.3604  -32.8321   29.4815 H   0  0  0  0  0  0  0  0  0  0  0  0
  -12.3748  -33.1044   31.2030 H   0  0  0  0  0  0  0  0  0  0  0  0
  -13.9932  -36.0566   28.9699 H   0  0  0  0  0  0  0  0  0  0  0  0
  -13.9396  -38.2950   30.0236 H   0  0  0  0  0  0  0  0  0  0  0  0
  -13.9732  -38.5494   32.4691 H   0  0  0  0  0  0  0  0  0  0  0  0
  -14.2574  -33.2255   33.1277 H   0  0  0  0  0  0  0  0  0  0  0  0
  -15.3369  -32.5710   28.9747 H   0  0  0  0  0  0  0  0  0  0  0  0
  -16.2210  -33.8121   29.8376 H   0  0  0  0  0  0  0  0  0  0  0  0
  -16.2354  -32.5839   31.8813 H   0  0  0  0  0  0  0  0  0  0  0  0
  -16.4446  -31.3251   30.6812 H   0  0  0  0  0  0  0  0  0  0  0  0
  -12.1938  -30.9606   26.9298 H   0  0  0  0  0  0  0  0  0  0  0  0
  1  2  2  0
  2  3  1  0
  3  4  2  0
  4  5  1  0
  5  6  2  0
  6  7  1  0
  7  8  2  0
  8  9  1  0
  9 10  1  0
  9 11  1  0
  9 12  1  0
 12 13  1  0
 13 14  2  0
 14 15  1  0
 15 16  2  0
 16 17  1  0
 17 18  1  0
 18 19  1  0
 19 20  1  0
 20 21  1  0
 21 22  2  0
 22 23  1  0
 23 24  2  0
 24 25  1  0
 25 26  2  0
 26 27  1  0
 27 28  2  0
 28 29  1  0
 20 30  1  0
 30 31  1  0
 31 32  1  0
 17 33  2  0
 33 34  1  0
 14  2  1  0
 32 18  1  0
  8  3  1  0
 33 13  1  0
 29 21  1  0
 29 25  1  0
  4 35  1  0
  5 36  1  0
  6 37  1  0
  7 38  1  0
 15 39  1  0
 16 40  1  0
 18 41  1  0
 19 42  1  0
 19 43  1  0
 22 44  1  0
 23 45  1  0
 24 46  1  0
 28 47  1  0
 30 48  1  0
 30 49  1  0
 31 50  1  0
 31 51  1  0
 34 52  1  0
M  END
>  <Energy>  (194) 
234.06759208194669

>  <compound_id>  (194) 
3977

>  <target_id>  (194) 
1

>  <reference_id>  (194) 
138

>  <inspiration_ids>  (194) 
[138, 101]

>  <energy_score>  (194) 
-46.920881381091874

>  <distance_score>  (194) 
1.9996093277775564

>  <path>  (194) 
/opt/xchem-fragalysis-2/maxwin/BulkDock/SCRATCH/505735/C3977-P138/C3977-P138.minimised.mol

>  <scratch_subdir>  (194) 
/opt/xchem-fragalysis-2/maxwin/BulkDock/SCRATCH/505735/C3977-P138

>  <fragmenstein_runtime>  (194) 
34.2849760055542

>  <fragmenstein_outcome>  (194) 
too moved

>  <fragmenstein_mode>  (194) 
expansion

>  <fragmenstein_error>  (194) 


$$$$
C3977-P101
     RDKit          3D

 52 57  0  0  0  0  0  0  0  0999 V2000
  -15.9921  -27.1130   25.3907 O   0  0  0  0  0  0  0  0  0  0  0  0
  -15.1281  -27.6130   26.1043 C   0  0  0  0  0  0  0  0  0  0  0  0
  -13.7537  -26.9510   26.2158 C   0  0  0  0  0  0  0  0  0  0  0  0
  -13.7026  -25.5615   25.9793 C   0  0  0  0  0  0  0  0  0  0  0  0
  -12.5962  -24.7900   26.3599 C   0  0  0  0  0  0  0  0  0  0  0  0
  -11.5273  -25.3853   27.0054 C   0  0  0  0  0  0  0  0  0  0  0  0
  -11.5381  -26.7621   27.2002 C   0  0  0  0  0  0  0  0  0  0  0  0
  -12.6159  -27.5792   26.7526 C   0  0  0  0  0  0  0  0  0  0  0  0
  -12.6191  -29.0611   27.0837 C   0  0  0  0  0  0  0  0  0  0  0  0
  -11.4781  -29.7270   26.8086 F   0  0  0  0  0  0  0  0  0  0  0  0
  -12.7733  -29.1979   28.4354 F   0  0  0  0  0  0  0  0  0  0  0  0
  -13.5725  -29.8723   26.3958 O   0  0  0  0  0  0  0  0  0  0  0  0
  -14.6951  -29.8510   27.1451 C   0  0  0  0  0  0  0  0  0  0  0  0
  -15.5194  -28.7559   26.9981 C   0  0  0  0  0  0  0  0  0  0  0  0
  -16.5646  -28.6173   27.9002 C   0  0  0  0  0  0  0  0  0  0  0  0
  -16.6563  -29.5116   28.9856 C   0  0  0  0  0  0  0  0  0  0  0  0
  -15.7410  -30.5864   29.1884 C   0  0  0  0  0  0  0  0  0  0  0  0
  -15.8308  -31.3307   30.5154 C   0  0  0  0  0  0  0  0  0  0  0  0
  -14.9217  -32.5205   30.9510 C   0  0  0  0  0  0  0  0  0  0  0  0
  -15.4208  -33.8376   30.4701 N   0  0  0  0  0  0  0  0  0  0  0  0
  -14.9309  -35.0775   30.8964 C   0  0  0  0  0  0  0  0  0  0  0  0
  -14.3156  -35.9553   30.0718 C   0  0  0  0  0  0  0  0  0  0  0  0
  -13.7607  -37.2000   30.5814 C   0  0  0  0  0  0  0  0  0  0  0  0
  -13.8715  -37.5392   31.8779 C   0  0  0  0  0  0  0  0  0  0  0  0
  -14.5933  -36.6869   32.7525 C   0  0  0  0  0  0  0  0  0  0  0  0
  -14.8882  -36.7717   34.0330 N   0  0  0  0  0  0  0  0  0  0  0  0
  -15.7091  -35.7093   34.3446 N   0  0  0  0  0  0  0  0  0  0  0  0
  -15.8728  -34.9960   33.2510 C   0  0  0  0  0  0  0  0  0  0  0  0
  -15.1220  -35.5118   32.2264 N   0  0  0  0  0  0  0  0  0  0  0  0
  -16.4463  -33.7369   29.4331 C   0  0  0  0  0  0  0  0  0  0  0  0
  -17.6039  -32.8580   29.9402 C   0  0  0  0  0  0  0  0  0  0  0  0
  -17.2144  -31.7113   30.7178 O   0  0  0  0  0  0  0  0  0  0  0  0
  -14.8007  -30.7773   28.1950 C   0  0  0  0  0  0  0  0  0  0  0  0
  -13.8548  -31.7495   28.2726 O   0  0  0  0  0  0  0  0  0  0  0  0
  -14.5686  -25.0528   25.5570 H   0  0  0  0  0  0  0  0  0  0  0  0
  -12.5987  -23.7144   26.1954 H   0  0  0  0  0  0  0  0  0  0  0  0
  -10.7024  -24.7794   27.3733 H   0  0  0  0  0  0  0  0  0  0  0  0
  -10.7202  -27.1726   27.7812 H   0  0  0  0  0  0  0  0  0  0  0  0
  -17.2415  -27.7681   27.8389 H   0  0  0  0  0  0  0  0  0  0  0  0
  -17.4299  -29.3272   29.7346 H   0  0  0  0  0  0  0  0  0  0  0  0
  -15.6315  -30.5488   31.2628 H   0  0  0  0  0  0  0  0  0  0  0  0
  -13.8774  -32.3478   30.6886 H   0  0  0  0  0  0  0  0  0  0  0  0
  -14.9659  -32.5458   32.0435 H   0  0  0  0  0  0  0  0  0  0  0  0
  -14.1558  -35.7320   29.0222 H   0  0  0  0  0  0  0  0  0  0  0  0
  -13.2210  -37.8322   29.8827 H   0  0  0  0  0  0  0  0  0  0  0  0
  -13.4467  -38.4562   32.2690 H   0  0  0  0  0  0  0  0  0  0  0  0
  -16.4882  -34.1157   33.1431 H   0  0  0  0  0  0  0  0  0  0  0  0
  -16.0100  -33.3246   28.5190 H   0  0  0  0  0  0  0  0  0  0  0  0
  -16.8472  -34.7210   29.1600 H   0  0  0  0  0  0  0  0  0  0  0  0
  -18.2115  -32.5138   29.0964 H   0  0  0  0  0  0  0  0  0  0  0  0
  -18.2602  -33.4534   30.5846 H   0  0  0  0  0  0  0  0  0  0  0  0
  -13.4067  -31.7868   27.4050 H   0  0  0  0  0  0  0  0  0  0  0  0
  1  2  2  0
  2  3  1  0
  3  4  2  0
  4  5  1  0
  5  6  2  0
  6  7  1  0
  7  8  2  0
  8  9  1  0
  9 10  1  0
  9 11  1  0
  9 12  1  0
 12 13  1  0
 13 14  2  0
 14 15  1  0
 15 16  2  0
 16 17  1  0
 17 18  1  0
 18 19  1  0
 19 20  1  0
 20 21  1  0
 21 22  2  0
 22 23  1  0
 23 24  2  0
 24 25  1  0
 25 26  2  0
 26 27  1  0
 27 28  2  0
 28 29  1  0
 20 30  1  0
 30 31  1  0
 31 32  1  0
 17 33  2  0
 33 34  1  0
 14  2  1  0
 32 18  1  0
  8  3  1  0
 33 13  1  0
 29 21  1  0
 29 25  1  0
  4 35  1  0
  5 36  1  0
  6 37  1  0
  7 38  1  0
 15 39  1  0
 16 40  1  0
 18 41  1  0
 19 42  1  0
 19 43  1  0
 22 44  1  0
 23 45  1  0
 24 46  1  0
 28 47  1  0
 30 48  1  0
 30 49  1  0
 31 50  1  0
 31 51  1  0
 34 52  1  0
M  END
>  <Energy>  (195) 
238.45915488870719

>  <compound_id>  (195) 
3977

>  <target_id>  (195) 
1

>  <reference_id>  (195) 
101

>  <inspiration_ids>  (195) 
[138, 101]

>  <energy_score>  (195) 
-42.52931857433066

>  <distance_score>  (195) 
2.220480283104986

>  <path>  (195) 
/opt/xchem-fragalysis-2/maxwin/BulkDock/SCRATCH/505735/C3977-P101/C3977-P101.minimised.mol

>  <scratch_subdir>  (195) 
/opt/xchem-fragalysis-2/maxwin/BulkDock/SCRATCH/505735/C3977-P101

>  <fragmenstein_runtime>  (195) 
33.7507746219635

>  <fragmenstein_outcome>  (195) 
too moved

>  <fragmenstein_mode>  (195) 
expansion

>  <fragmenstein_error>  (195) 


$$$$
C3980-P139
     RDKit          3D

 62 65  0  0  0  0  0  0  0  0999 V2000
   -8.0409    3.9875    6.8064 C   0  0  0  0  0  0  0  0  0  0  0  0
   -7.3116    2.8106    7.4409 C   0  0  0  0  0  0  0  0  0  0  0  0
   -7.2856    1.5068    6.6098 C   0  0  0  0  0  0  0  0  0  0  0  0
   -6.5224    0.4185    7.3816 C   0  0  0  0  0  0  0  0  0  0  0  0
   -6.1338   -0.8774    6.6812 C   0  0  0  0  0  0  0  0  0  0  0  0
   -7.1339   -1.7067    5.8781 C   0  0  0  0  0  0  0  0  0  0  0  0
   -8.4781   -1.1413    5.3492 C   0  0  0  0  0  0  0  0  0  0  0  0
   -9.7845   -1.2435    6.2266 C   0  0  0  0  0  0  0  0  0  0  0  0
   -9.7770   -2.5512    6.9422 C   0  0  0  0  0  0  0  0  0  0  0  0
  -10.3336   -3.5440    6.4908 O   0  0  0  0  0  0  0  0  0  0  0  0
   -8.9081   -2.6867    8.1394 C   0  0  0  0  0  0  0  0  0  0  0  0
   -8.3510   -1.6923    8.5682 O   0  0  0  0  0  0  0  0  0  0  0  0
  -10.6868   -0.1908    6.9320 C   0  0  0  0  0  0  0  0  0  0  0  0
  -10.5070    0.2643    8.4192 C   0  0  0  0  0  0  0  0  0  0  0  0
  -11.6464    1.1577    8.8429 N   0  0  0  0  0  0  0  0  0  0  0  0
  -12.1216    1.2277   10.1596 C   0  0  0  0  0  0  0  0  0  0  0  0
  -13.1928    0.5358   10.6117 C   0  0  0  0  0  0  0  0  0  0  0  0
  -13.7173    0.7743   11.9506 C   0  0  0  0  0  0  0  0  0  0  0  0
  -13.1653    1.6865   12.7720 C   0  0  0  0  0  0  0  0  0  0  0  0
  -12.0479    2.4352   12.3216 C   0  0  0  0  0  0  0  0  0  0  0  0
  -11.3145    3.3680   12.8912 N   0  0  0  0  0  0  0  0  0  0  0  0
  -10.3667    3.7733   11.9802 N   0  0  0  0  0  0  0  0  0  0  0  0
  -10.5428    3.0716   10.8816 C   0  0  0  0  0  0  0  0  0  0  0  0
  -11.5701    2.1820   11.0416 N   0  0  0  0  0  0  0  0  0  0  0  0
  -12.5549    1.5474    7.7474 C   0  0  0  0  0  0  0  0  0  0  0  0
  -11.7314    1.9430    6.5233 C   0  0  0  0  0  0  0  0  0  0  0  0
  -10.8455    0.9281    6.0429 O   0  0  0  0  0  0  0  0  0  0  0  0
   -8.3768    0.0159    4.3261 C   0  0  0  0  0  0  0  0  0  0  0  0
   -7.0030    0.6715    4.1804 C   0  0  0  0  0  0  0  0  0  0  0  0
   -6.7327    1.7648    5.2052 C   0  0  0  0  0  0  0  0  0  0  0  0
   -9.0030    3.6819    6.3882 H   0  0  0  0  0  0  0  0  0  0  0  0
   -7.4447    4.4483    6.0133 H   0  0  0  0  0  0  0  0  0  0  0  0
   -8.2268    4.7608    7.5592 H   0  0  0  0  0  0  0  0  0  0  0  0
   -6.2924    3.1256    7.6909 H   0  0  0  0  0  0  0  0  0  0  0  0
   -7.8332    2.5864    8.3732 H   0  0  0  0  0  0  0  0  0  0  0  0
   -8.3282    1.2052    6.5367 H   0  0  0  0  0  0  0  0  0  0  0  0
   -7.0663    0.2018    8.3044 H   0  0  0  0  0  0  0  0  0  0  0  0
   -5.5725    0.8555    7.7148 H   0  0  0  0  0  0  0  0  0  0  0  0
   -5.6962   -1.5385    7.4429 H   0  0  0  0  0  0  0  0  0  0  0  0
   -5.2789   -0.6514    6.0290 H   0  0  0  0  0  0  0  0  0  0  0  0
   -7.2840   -2.6617    6.3890 H   0  0  0  0  0  0  0  0  0  0  0  0
   -6.5772   -2.0508    4.9905 H   0  0  0  0  0  0  0  0  0  0  0  0
   -8.6952   -1.9733    4.6469 H   0  0  0  0  0  0  0  0  0  0  0  0
  -10.4863   -1.4625    5.3938 H   0  0  0  0  0  0  0  0  0  0  0  0
   -8.7831   -3.7124    8.5122 H   0  0  0  0  0  0  0  0  0  0  0  0
  -11.6687   -0.6928    6.9387 H   0  0  0  0  0  0  0  0  0  0  0  0
  -10.4927   -0.6027    9.0844 H   0  0  0  0  0  0  0  0  0  0  0  0
   -9.5788    0.8280    8.5381 H   0  0  0  0  0  0  0  0  0  0  0  0
  -13.7094   -0.1813    9.9810 H   0  0  0  0  0  0  0  0  0  0  0  0
  -14.5890    0.2066   12.2593 H   0  0  0  0  0  0  0  0  0  0  0  0
  -13.5513    1.8834   13.7656 H   0  0  0  0  0  0  0  0  0  0  0  0
   -9.9718    3.1508    9.9692 H   0  0  0  0  0  0  0  0  0  0  0  0
  -13.1688    2.4040    8.0514 H   0  0  0  0  0  0  0  0  0  0  0  0
  -13.2345    0.7194    7.5136 H   0  0  0  0  0  0  0  0  0  0  0  0
  -11.1211    2.8213    6.7565 H   0  0  0  0  0  0  0  0  0  0  0  0
  -12.3938    2.2208    5.6972 H   0  0  0  0  0  0  0  0  0  0  0  0
   -8.6319   -0.3987    3.3395 H   0  0  0  0  0  0  0  0  0  0  0  0
   -9.1327    0.7853    4.4911 H   0  0  0  0  0  0  0  0  0  0  0  0
   -6.9701    1.1517    3.1919 H   0  0  0  0  0  0  0  0  0  0  0  0
   -6.1916   -0.0577    4.1349 H   0  0  0  0  0  0  0  0  0  0  0  0
   -7.1868    2.6719    4.7925 H   0  0  0  0  0  0  0  0  0  0  0  0
   -5.6590    1.9665    5.2535 H   0  0  0  0  0  0  0  0  0  0  0  0
  1  2  1  0
  2  3  1  0
  3  4  1  0
  4  5  1  0
  5  6  1  0
  6  7  1  0
  7  8  1  0
  8  9  1  0
  9 10  2  0
  9 11  1  0
 11 12  2  0
  8 13  1  0
 13 14  1  0
 14 15  1  0
 15 16  1  0
 16 17  2  0
 17 18  1  0
 18 19  2  0
 19 20  1  0
 20 21  2  0
 21 22  1  0
 22 23  2  0
 23 24  1  0
 15 25  1  0
 25 26  1  0
 26 27  1  0
  7 28  1  0
 28 29  1  0
 29 30  1  0
 30  3  1  0
 27 13  1  0
 24 16  1  0
 24 20  1  0
  1 31  1  0
  1 32  1  0
  1 33  1  0
  2 34  1  0
  2 35  1  0
  3 36  1  0
  4 37  1  0
  4 38  1  0
  5 39  1  0
  5 40  1  0
  6 41  1  0
  6 42  1  0
  7 43  1  0
  8 44  1  0
 11 45  1  0
 13 46  1  0
 14 47  1  0
 14 48  1  0
 17 49  1  0
 18 50  1  0
 19 51  1  0
 23 52  1  0
 25 53  1  0
 25 54  1  0
 26 55  1  0
 26 56  1  0
 28 57  1  0
 28 58  1  0
 29 59  1  0
 29 60  1  0
 30 61  1  0
 30 62  1  0
M  END
>  <Energy>  (196) 
217.91923977930884

>  <compound_id>  (196) 
3980

>  <target_id>  (196) 
1

>  <reference_id>  (196) 
139

>  <inspiration_ids>  (196) 
[139, 17]

>  <energy_score>  (196) 
-24.078066386785167

>  <distance_score>  (196) 
1.962453047677667

>  <path>  (196) 
/opt/xchem-fragalysis-2/maxwin/BulkDock/SCRATCH/505735/C3980-P139/C3980-P139.minimised.mol

>  <scratch_subdir>  (196) 
/opt/xchem-fragalysis-2/maxwin/BulkDock/SCRATCH/505735/C3980-P139

>  <fragmenstein_runtime>  (196) 
18.602283239364624

>  <fragmenstein_outcome>  (196) 
too moved

>  <fragmenstein_mode>  (196) 
expansion

>  <fragmenstein_error>  (196) 


$$$$
C3980-P17
     RDKit          3D

 62 65  0  0  0  0  0  0  0  0999 V2000
   -3.8640   -1.2721    7.1944 C   0  0  0  0  0  0  0  0  0  0  0  0
   -5.0831   -2.1744    7.1394 C   0  0  0  0  0  0  0  0  0  0  0  0
   -5.8063   -2.2016    5.7790 C   0  0  0  0  0  0  0  0  0  0  0  0
   -6.9354   -3.2591    5.7582 C   0  0  0  0  0  0  0  0  0  0  0  0
   -8.0566   -3.2410    6.7945 C   0  0  0  0  0  0  0  0  0  0  0  0
   -9.1688   -2.2320    6.5221 C   0  0  0  0  0  0  0  0  0  0  0  0
   -8.6394   -0.8083    6.6412 C   0  0  0  0  0  0  0  0  0  0  0  0
   -9.2711    0.0687    7.7210 C   0  0  0  0  0  0  0  0  0  0  0  0
   -8.7949   -0.3833    9.0858 C   0  0  0  0  0  0  0  0  0  0  0  0
   -9.5082   -0.8544    9.9612 O   0  0  0  0  0  0  0  0  0  0  0  0
   -7.3689   -0.0978    9.4424 C   0  0  0  0  0  0  0  0  0  0  0  0
   -6.6189    0.4777    8.6719 O   0  0  0  0  0  0  0  0  0  0  0  0
  -10.7850    0.2408    7.8070 C   0  0  0  0  0  0  0  0  0  0  0  0
  -11.0464    1.4475    8.7438 C   0  0  0  0  0  0  0  0  0  0  0  0
  -12.4682    1.5252    9.1332 N   0  0  0  0  0  0  0  0  0  0  0  0
  -12.8114    1.5057   10.5058 C   0  0  0  0  0  0  0  0  0  0  0  0
  -13.8481    0.7971   11.0133 C   0  0  0  0  0  0  0  0  0  0  0  0
  -14.0891    0.7452   12.4476 C   0  0  0  0  0  0  0  0  0  0  0  0
  -13.2536    1.3297   13.3240 C   0  0  0  0  0  0  0  0  0  0  0  0
  -12.1470    2.0677   12.8372 C   0  0  0  0  0  0  0  0  0  0  0  0
  -11.1475    2.6749   13.4422 N   0  0  0  0  0  0  0  0  0  0  0  0
  -10.4417    3.3722   12.4964 N   0  0  0  0  0  0  0  0  0  0  0  0
  -11.0022    3.1274   11.3337 C   0  0  0  0  0  0  0  0  0  0  0  0
  -12.0143    2.2052   11.4624 N   0  0  0  0  0  0  0  0  0  0  0  0
  -13.3405    0.9574    8.0699 C   0  0  0  0  0  0  0  0  0  0  0  0
  -12.6898    1.1026    6.6692 C   0  0  0  0  0  0  0  0  0  0  0  0
  -11.3860    0.4972    6.5327 O   0  0  0  0  0  0  0  0  0  0  0  0
   -8.5347   -0.0873    5.2920 C   0  0  0  0  0  0  0  0  0  0  0  0
   -7.3774   -0.5904    4.4226 C   0  0  0  0  0  0  0  0  0  0  0  0
   -6.0665   -0.7981    5.1762 C   0  0  0  0  0  0  0  0  0  0  0  0
   -4.1358   -0.2134    7.1793 H   0  0  0  0  0  0  0  0  0  0  0  0
   -3.2093   -1.4750    6.3475 H   0  0  0  0  0  0  0  0  0  0  0  0
   -3.2994   -1.4522    8.1135 H   0  0  0  0  0  0  0  0  0  0  0  0
   -4.7489   -3.1932    7.3619 H   0  0  0  0  0  0  0  0  0  0  0  0
   -5.7664   -1.8831    7.9384 H   0  0  0  0  0  0  0  0  0  0  0  0
   -5.0620   -2.6323    5.0882 H   0  0  0  0  0  0  0  0  0  0  0  0
   -6.4423   -4.2265    5.9041 H   0  0  0  0  0  0  0  0  0  0  0  0
   -7.3645   -3.3393    4.7537 H   0  0  0  0  0  0  0  0  0  0  0  0
   -8.5203   -4.2366    6.7987 H   0  0  0  0  0  0  0  0  0  0  0  0
   -7.6609   -3.0996    7.8022 H   0  0  0  0  0  0  0  0  0  0  0  0
   -9.9712   -2.4106    7.2447 H   0  0  0  0  0  0  0  0  0  0  0  0
   -9.6030   -2.4178    5.5327 H   0  0  0  0  0  0  0  0  0  0  0  0
   -7.6190   -0.9017    6.9969 H   0  0  0  0  0  0  0  0  0  0  0  0
   -8.8569    1.0799    7.5879 H   0  0  0  0  0  0  0  0  0  0  0  0
   -7.1008   -0.4178   10.4546 H   0  0  0  0  0  0  0  0  0  0  0  0
  -11.2479   -0.6697    8.2088 H   0  0  0  0  0  0  0  0  0  0  0  0
  -10.4096    1.3815    9.6251 H   0  0  0  0  0  0  0  0  0  0  0  0
  -10.7897    2.3825    8.2284 H   0  0  0  0  0  0  0  0  0  0  0  0
  -14.5073    0.2055   10.3885 H   0  0  0  0  0  0  0  0  0  0  0  0
  -14.9548    0.1901   12.7953 H   0  0  0  0  0  0  0  0  0  0  0  0
  -13.4118    1.2767   14.3948 H   0  0  0  0  0  0  0  0  0  0  0  0
  -10.7182    3.5711   10.3929 H   0  0  0  0  0  0  0  0  0  0  0  0
  -14.3068    1.4737    8.0748 H   0  0  0  0  0  0  0  0  0  0  0  0
  -13.5146   -0.1070    8.2700 H   0  0  0  0  0  0  0  0  0  0  0  0
  -12.5791    2.1641    6.4190 H   0  0  0  0  0  0  0  0  0  0  0  0
  -13.3380    0.6548    5.9090 H   0  0  0  0  0  0  0  0  0  0  0  0
   -8.3657    0.9841    5.4606 H   0  0  0  0  0  0  0  0  0  0  0  0
   -9.4741   -0.1612    4.7320 H   0  0  0  0  0  0  0  0  0  0  0  0
   -7.6737   -1.4839    3.8669 H   0  0  0  0  0  0  0  0  0  0  0  0
   -7.2080    0.1731    3.6511 H   0  0  0  0  0  0  0  0  0  0  0  0
   -5.2495   -0.6033    4.4664 H   0  0  0  0  0  0  0  0  0  0  0  0
   -5.9615   -0.0103    5.9308 H   0  0  0  0  0  0  0  0  0  0  0  0
  1  2  1  0
  2  3  1  0
  3  4  1  0
  4  5  1  0
  5  6  1  0
  6  7  1  0
  7  8  1  0
  8  9  1  0
  9 10  2  0
  9 11  1  0
 11 12  2  0
  8 13  1  0
 13 14  1  0
 14 15  1  0
 15 16  1  0
 16 17  2  0
 17 18  1  0
 18 19  2  0
 19 20  1  0
 20 21  2  0
 21 22  1  0
 22 23  2  0
 23 24  1  0
 15 25  1  0
 25 26  1  0
 26 27  1  0
  7 28  1  0
 28 29  1  0
 29 30  1  0
 30  3  1  0
 27 13  1  0
 24 16  1  0
 24 20  1  0
  1 31  1  0
  1 32  1  0
  1 33  1  0
  2 34  1  0
  2 35  1  0
  3 36  1  0
  4 37  1  0
  4 38  1  0
  5 39  1  0
  5 40  1  0
  6 41  1  0
  6 42  1  0
  7 43  1  0
  8 44  1  0
 11 45  1  0
 13 46  1  0
 14 47  1  0
 14 48  1  0
 17 49  1  0
 18 50  1  0
 19 51  1  0
 23 52  1  0
 25 53  1  0
 25 54  1  0
 26 55  1  0
 26 56  1  0
 28 57  1  0
 28 58  1  0
 29 59  1  0
 29 60  1  0
 30 61  1  0
 30 62  1  0
M  END
>  <Energy>  (197) 
185.59259370013183

>  <compound_id>  (197) 
3980

>  <target_id>  (197) 
1

>  <reference_id>  (197) 
17

>  <inspiration_ids>  (197) 
[139, 17]

>  <energy_score>  (197) 
-56.404712465962234

>  <distance_score>  (197) 
2.463752582855659

>  <path>  (197) 
/opt/xchem-fragalysis-2/maxwin/BulkDock/SCRATCH/505735/C3980-P17/C3980-P17.minimised.mol

>  <scratch_subdir>  (197) 
/opt/xchem-fragalysis-2/maxwin/BulkDock/SCRATCH/505735/C3980-P17

>  <fragmenstein_runtime>  (197) 
18.6910400390625

>  <fragmenstein_outcome>  (197) 
too moved

>  <fragmenstein_mode>  (197) 
expansion

>  <fragmenstein_error>  (197) 


$$$$
C3984-P139
     RDKit          3D

 54 58  0  0  0  0  0  0  0  0999 V2000
   -3.3769   -2.6040    7.6839 C   0  0  0  0  0  0  0  0  0  0  0  0
   -4.5080   -2.0857    6.8945 C   0  0  0  0  0  0  0  0  0  0  0  0
   -4.8031   -2.4947    5.8418 O   0  0  0  0  0  0  0  0  0  0  0  0
   -5.0786   -0.8902    7.7067 N   0  0  0  0  0  0  0  0  0  0  0  0
   -6.0169    0.0561    7.3630 N   0  0  0  0  0  0  0  0  0  0  0  0
   -7.2136   -0.5043    6.8852 C   0  0  0  0  0  0  0  0  0  0  0  0
   -8.3071   -0.5516    7.7633 C   0  0  0  0  0  0  0  0  0  0  0  0
   -9.5529   -1.0172    7.3219 C   0  0  0  0  0  0  0  0  0  0  0  0
  -10.8839   -0.5495    7.8768 C   0  0  0  0  0  0  0  0  0  0  0  0
  -10.8393    0.4055    9.0958 C   0  0  0  0  0  0  0  0  0  0  0  0
  -12.1941    0.9254    9.4423 N   0  0  0  0  0  0  0  0  0  0  0  0
  -12.5588    1.2722   10.7426 C   0  0  0  0  0  0  0  0  0  0  0  0
  -13.6331    0.7426   11.3709 C   0  0  0  0  0  0  0  0  0  0  0  0
  -13.9688    1.1412   12.7268 C   0  0  0  0  0  0  0  0  0  0  0  0
  -13.2227    2.0366   13.3976 C   0  0  0  0  0  0  0  0  0  0  0  0
  -12.0991    2.6240   12.7609 C   0  0  0  0  0  0  0  0  0  0  0  0
  -11.1932    3.4864   13.1710 N   0  0  0  0  0  0  0  0  0  0  0  0
  -10.3579    3.7589   12.1179 N   0  0  0  0  0  0  0  0  0  0  0  0
  -10.7641    3.0398   11.0956 C   0  0  0  0  0  0  0  0  0  0  0  0
  -11.8205    2.2440   11.4552 N   0  0  0  0  0  0  0  0  0  0  0  0
  -13.2049    0.7250    8.3885 C   0  0  0  0  0  0  0  0  0  0  0  0
  -12.5640    0.9976    7.0323 C   0  0  0  0  0  0  0  0  0  0  0  0
  -11.4955    0.1069    6.7277 O   0  0  0  0  0  0  0  0  0  0  0  0
   -9.6043   -1.7634    6.1397 C   0  0  0  0  0  0  0  0  0  0  0  0
   -8.5573   -1.6780    5.2438 C   0  0  0  0  0  0  0  0  0  0  0  0
   -7.4522   -0.8780    5.5522 C   0  0  0  0  0  0  0  0  0  0  0  0
   -6.6379   -0.3507    4.4010 C   0  0  0  0  0  0  0  0  0  0  0  0
   -6.4749    1.1806    4.4391 C   0  0  0  0  0  0  0  0  0  0  0  0
   -6.0399    1.7833    5.6522 O   0  0  0  0  0  0  0  0  0  0  0  0
   -5.2688    0.9218    6.4462 C   0  0  0  0  0  0  0  0  0  0  0  0
   -4.4410    1.6837    7.2196 F   0  0  0  0  0  0  0  0  0  0  0  0
   -4.4114    0.2038    5.6633 F   0  0  0  0  0  0  0  0  0  0  0  0
   -3.3733   -2.2800    8.7157 H   0  0  0  0  0  0  0  0  0  0  0  0
   -3.3332   -3.6859    7.5750 H   0  0  0  0  0  0  0  0  0  0  0  0
   -2.5033   -2.1006    7.2759 H   0  0  0  0  0  0  0  0  0  0  0  0
   -4.5324   -0.7632    8.5542 H   0  0  0  0  0  0  0  0  0  0  0  0
   -8.1992   -0.0858    8.7396 H   0  0  0  0  0  0  0  0  0  0  0  0
  -11.5040   -1.4200    8.1090 H   0  0  0  0  0  0  0  0  0  0  0  0
  -10.2085    1.2664    8.8514 H   0  0  0  0  0  0  0  0  0  0  0  0
  -10.4024   -0.1124    9.9575 H   0  0  0  0  0  0  0  0  0  0  0  0
  -14.2605   -0.0047   10.8961 H   0  0  0  0  0  0  0  0  0  0  0  0
  -14.8420    0.6907   13.1867 H   0  0  0  0  0  0  0  0  0  0  0  0
  -13.4579    2.3431   14.4101 H   0  0  0  0  0  0  0  0  0  0  0  0
  -10.3388    3.0585   10.1057 H   0  0  0  0  0  0  0  0  0  0  0  0
  -14.0451    1.4146    8.5305 H   0  0  0  0  0  0  0  0  0  0  0  0
  -13.5887   -0.3008    8.4382 H   0  0  0  0  0  0  0  0  0  0  0  0
  -13.3087    0.9059    6.2354 H   0  0  0  0  0  0  0  0  0  0  0  0
  -12.1670    2.0186    6.9929 H   0  0  0  0  0  0  0  0  0  0  0  0
  -10.5398   -2.2192    5.8165 H   0  0  0  0  0  0  0  0  0  0  0  0
   -8.6898   -2.0893    4.2465 H   0  0  0  0  0  0  0  0  0  0  0  0
   -7.1302   -0.5926    3.4493 H   0  0  0  0  0  0  0  0  0  0  0  0
   -5.6774   -0.8636    4.3435 H   0  0  0  0  0  0  0  0  0  0  0  0
   -7.4334    1.6509    4.1895 H   0  0  0  0  0  0  0  0  0  0  0  0
   -5.7737    1.4787    3.6509 H   0  0  0  0  0  0  0  0  0  0  0  0
  1  2  1  0
  2  3  2  0
  2  4  1  0
  4  5  1  0
  5  6  1  0
  6  7  2  0
  7  8  1  0
  8  9  1  0
  9 10  1  0
 10 11  1  0
 11 12  1  0
 12 13  2  0
 13 14  1  0
 14 15  2  0
 15 16  1  0
 16 17  2  0
 17 18  1  0
 18 19  2  0
 19 20  1  0
 11 21  1  0
 21 22  1  0
 22 23  1  0
  8 24  2  0
 24 25  1  0
 25 26  2  0
 26 27  1  0
 27 28  1  0
 28 29  1  0
 29 30  1  0
 30 31  1  0
 30 32  1  0
 30  5  1  0
 26  6  1  0
 23  9  1  0
 20 12  1  0
 20 16  1  0
  1 33  1  0
  1 34  1  0
  1 35  1  0
  4 36  1  0
  7 37  1  0
  9 38  1  0
 10 39  1  0
 10 40  1  0
 13 41  1  0
 14 42  1  0
 15 43  1  0
 19 44  1  0
 21 45  1  0
 21 46  1  0
 22 47  1  0
 22 48  1  0
 24 49  1  0
 25 50  1  0
 27 51  1  0
 27 52  1  0
 28 53  1  0
 28 54  1  0
M  END
>  <Energy>  (198) 
241.95835168956859

>  <compound_id>  (198) 
3984

>  <target_id>  (198) 
1

>  <reference_id>  (198) 
139

>  <inspiration_ids>  (198) 
[139, 51]

>  <energy_score>  (198) 
-18.43021372975187

>  <distance_score>  (198) 
1.3118496222945382

>  <path>  (198) 
/opt/xchem-fragalysis-2/maxwin/BulkDock/SCRATCH/505735/C3984-P139/C3984-P139.minimised.mol

>  <scratch_subdir>  (198) 
/opt/xchem-fragalysis-2/maxwin/BulkDock/SCRATCH/505735/C3984-P139

>  <fragmenstein_runtime>  (198) 
6.656542539596558

>  <fragmenstein_outcome>  (198) 
too moved

>  <fragmenstein_mode>  (198) 
expansion

>  <fragmenstein_error>  (198) 


$$$$
C3984-P51
     RDKit          3D

 54 58  0  0  0  0  0  0  0  0999 V2000
   -7.7277   -4.2640    6.8150 C   0  0  0  0  0  0  0  0  0  0  0  0
   -7.1517   -2.9307    6.4120 C   0  0  0  0  0  0  0  0  0  0  0  0
   -6.8885   -2.6745    5.3043 O   0  0  0  0  0  0  0  0  0  0  0  0
   -7.1091   -2.0441    7.6881 N   0  0  0  0  0  0  0  0  0  0  0  0
   -6.8336   -0.6777    7.8377 N   0  0  0  0  0  0  0  0  0  0  0  0
   -8.0164   -0.0389    7.4016 C   0  0  0  0  0  0  0  0  0  0  0  0
   -9.2588   -0.5453    7.8190 C   0  0  0  0  0  0  0  0  0  0  0  0
  -10.3998   -0.3897    7.0337 C   0  0  0  0  0  0  0  0  0  0  0  0
  -11.7597   -0.8669    7.4755 C   0  0  0  0  0  0  0  0  0  0  0  0
  -12.1075   -0.6256    8.9654 C   0  0  0  0  0  0  0  0  0  0  0  0
  -12.4865    0.7890    9.2812 N   0  0  0  0  0  0  0  0  0  0  0  0
  -12.7235    1.0752   10.6331 C   0  0  0  0  0  0  0  0  0  0  0  0
  -13.7115    0.5025   11.3568 C   0  0  0  0  0  0  0  0  0  0  0  0
  -13.8856    0.8435   12.7540 C   0  0  0  0  0  0  0  0  0  0  0  0
  -13.0682    1.7186   13.3635 C   0  0  0  0  0  0  0  0  0  0  0  0
  -12.0351    2.3540   12.6229 C   0  0  0  0  0  0  0  0  0  0  0  0
  -11.1128    3.2390   12.9414 N   0  0  0  0  0  0  0  0  0  0  0  0
  -10.3813    3.5162   11.8099 N   0  0  0  0  0  0  0  0  0  0  0  0
  -10.8533    2.7671   10.8376 C   0  0  0  0  0  0  0  0  0  0  0  0
  -11.9030    2.0123   11.2871 N   0  0  0  0  0  0  0  0  0  0  0  0
  -13.5205    1.2676    8.3319 C   0  0  0  0  0  0  0  0  0  0  0  0
  -13.0652    1.0647    6.8958 C   0  0  0  0  0  0  0  0  0  0  0  0
  -12.8025   -0.3201    6.6272 O   0  0  0  0  0  0  0  0  0  0  0  0
  -10.2406    0.1707    5.7723 C   0  0  0  0  0  0  0  0  0  0  0  0
   -9.1078    0.9047    5.4994 C   0  0  0  0  0  0  0  0  0  0  0  0
   -8.0619    0.9332    6.4121 C   0  0  0  0  0  0  0  0  0  0  0  0
   -6.9940    1.9576    6.2574 C   0  0  0  0  0  0  0  0  0  0  0  0
   -5.8575    1.3629    5.4872 C   0  0  0  0  0  0  0  0  0  0  0  0
   -5.5192    0.0595    5.8986 O   0  0  0  0  0  0  0  0  0  0  0  0
   -5.5319   -0.2597    7.2726 C   0  0  0  0  0  0  0  0  0  0  0  0
   -5.0261    0.7869    7.9784 F   0  0  0  0  0  0  0  0  0  0  0  0
   -4.6212   -1.2660    7.4235 F   0  0  0  0  0  0  0  0  0  0  0  0
   -7.1946   -5.0416    6.2692 H   0  0  0  0  0  0  0  0  0  0  0  0
   -7.6351   -4.4704    7.8803 H   0  0  0  0  0  0  0  0  0  0  0  0
   -8.7870   -4.2857    6.5453 H   0  0  0  0  0  0  0  0  0  0  0  0
   -7.4821   -2.5619    8.4724 H   0  0  0  0  0  0  0  0  0  0  0  0
   -9.3095   -1.1594    8.7142 H   0  0  0  0  0  0  0  0  0  0  0  0
  -11.7747   -1.9492    7.2955 H   0  0  0  0  0  0  0  0  0  0  0  0
  -11.2958   -0.9328    9.6316 H   0  0  0  0  0  0  0  0  0  0  0  0
  -12.9766   -1.2549    9.1945 H   0  0  0  0  0  0  0  0  0  0  0  0
  -14.3927   -0.2221   10.9233 H   0  0  0  0  0  0  0  0  0  0  0  0
  -14.6887    0.3642   13.3043 H   0  0  0  0  0  0  0  0  0  0  0  0
  -13.1868    1.9566   14.4122 H   0  0  0  0  0  0  0  0  0  0  0  0
  -10.4903    2.7230    9.8217 H   0  0  0  0  0  0  0  0  0  0  0  0
  -13.7192    2.3323    8.5026 H   0  0  0  0  0  0  0  0  0  0  0  0
  -14.4537    0.7145    8.4992 H   0  0  0  0  0  0  0  0  0  0  0  0
  -13.8595    1.3799    6.2113 H   0  0  0  0  0  0  0  0  0  0  0  0
  -12.1898    1.6839    6.6778 H   0  0  0  0  0  0  0  0  0  0  0  0
  -11.0537    0.1784    5.0500 H   0  0  0  0  0  0  0  0  0  0  0  0
   -9.0769    1.5115    4.5974 H   0  0  0  0  0  0  0  0  0  0  0  0
   -6.6737    2.2945    7.2508 H   0  0  0  0  0  0  0  0  0  0  0  0
   -7.3704    2.8568    5.7547 H   0  0  0  0  0  0  0  0  0  0  0  0
   -4.9856    2.0187    5.5198 H   0  0  0  0  0  0  0  0  0  0  0  0
   -6.1359    1.2954    4.4291 H   0  0  0  0  0  0  0  0  0  0  0  0
  1  2  1  0
  2  3  2  0
  2  4  1  0
  4  5  1  0
  5  6  1  0
  6  7  2  0
  7  8  1  0
  8  9  1  0
  9 10  1  0
 10 11  1  0
 11 12  1  0
 12 13  2  0
 13 14  1  0
 14 15  2  0
 15 16  1  0
 16 17  2  0
 17 18  1  0
 18 19  2  0
 19 20  1  0
 11 21  1  0
 21 22  1  0
 22 23  1  0
  8 24  2  0
 24 25  1  0
 25 26  2  0
 26 27  1  0
 27 28  1  0
 28 29  1  0
 29 30  1  0
 30 31  1  0
 30 32  1  0
 30  5  1  0
 26  6  1  0
 23  9  1  0
 20 12  1  0
 20 16  1  0
  1 33  1  0
  1 34  1  0
  1 35  1  0
  4 36  1  0
  7 37  1  0
  9 38  1  0
 10 39  1  0
 10 40  1  0
 13 41  1  0
 14 42  1  0
 15 43  1  0
 19 44  1  0
 21 45  1  0
 21 46  1  0
 22 47  1  0
 22 48  1  0
 24 49  1  0
 25 50  1  0
 27 51  1  0
 27 52  1  0
 28 53  1  0
 28 54  1  0
M  END
>  <Energy>  (199) 
231.65703184579985

>  <compound_id>  (199) 
3984

>  <target_id>  (199) 
1

>  <reference_id>  (199) 
51

>  <inspiration_ids>  (199) 
[139, 51]

>  <energy_score>  (199) 
-28.7315335735218

>  <distance_score>  (199) 
1.9833454678569904

>  <path>  (199) 
/opt/xchem-fragalysis-2/maxwin/BulkDock/SCRATCH/505735/C3984-P51/C3984-P51.minimised.mol

>  <scratch_subdir>  (199) 
/opt/xchem-fragalysis-2/maxwin/BulkDock/SCRATCH/505735/C3984-P51

>  <fragmenstein_runtime>  (199) 
6.88545560836792

>  <fragmenstein_outcome>  (199) 
too moved

>  <fragmenstein_mode>  (199) 
expansion

>  <fragmenstein_error>  (199) 


$$$$
C3985-P139
     RDKit          3D

 48 53  0  0  0  0  0  0  0  0999 V2000
   -3.3425   -2.3556    7.2422 F   0  0  0  0  0  0  0  0  0  0  0  0
   -4.5088   -1.7266    7.0705 C   0  0  0  0  0  0  0  0  0  0  0  0
   -5.6780   -2.4683    6.9670 C   0  0  0  0  0  0  0  0  0  0  0  0
   -6.9214   -1.8210    6.9548 C   0  0  0  0  0  0  0  0  0  0  0  0
   -8.1240   -2.5322    6.9962 C   0  0  0  0  0  0  0  0  0  0  0  0
   -9.3349   -1.8460    7.0935 C   0  0  0  0  0  0  0  0  0  0  0  0
   -9.3804   -0.4405    7.1018 C   0  0  0  0  0  0  0  0  0  0  0  0
  -10.6864    0.2709    7.3846 C   0  0  0  0  0  0  0  0  0  0  0  0
  -11.0417    0.2027    8.8945 C   0  0  0  0  0  0  0  0  0  0  0  0
  -12.3321    0.9181    9.1587 N   0  0  0  0  0  0  0  0  0  0  0  0
  -12.6649    1.2418   10.4931 C   0  0  0  0  0  0  0  0  0  0  0  0
  -13.7061    0.6975   11.1674 C   0  0  0  0  0  0  0  0  0  0  0  0
  -13.9944    1.0846   12.5397 C   0  0  0  0  0  0  0  0  0  0  0  0
  -13.2369    1.9853   13.1893 C   0  0  0  0  0  0  0  0  0  0  0  0
  -12.1421    2.5831   12.5161 C   0  0  0  0  0  0  0  0  0  0  0  0
  -11.2377    3.4583   12.9012 N   0  0  0  0  0  0  0  0  0  0  0  0
  -10.4228    3.7218   11.8277 N   0  0  0  0  0  0  0  0  0  0  0  0
  -10.8458    2.9928   10.8188 C   0  0  0  0  0  0  0  0  0  0  0  0
  -11.9036    2.2083   11.1987 N   0  0  0  0  0  0  0  0  0  0  0  0
  -13.3862    0.3852    8.2451 C   0  0  0  0  0  0  0  0  0  0  0  0
  -12.9397    0.4513    6.7785 C   0  0  0  0  0  0  0  0  0  0  0  0
  -11.7260   -0.2808    6.5674 O   0  0  0  0  0  0  0  0  0  0  0  0
   -8.1834    0.2769    6.9348 C   0  0  0  0  0  0  0  0  0  0  0  0
   -6.9597   -0.4083    6.9180 C   0  0  0  0  0  0  0  0  0  0  0  0
   -5.7617    0.3033    6.8766 C   0  0  0  0  0  0  0  0  0  0  0  0
   -4.5569   -0.3532    7.0202 C   0  0  0  0  0  0  0  0  0  0  0  0
   -3.4491    0.3725    7.1569 F   0  0  0  0  0  0  0  0  0  0  0  0
   -5.6764    1.6506    6.6607 O   0  0  0  0  0  0  0  0  0  0  0  0
   -6.8229    2.3739    7.0928 C   0  0  0  0  0  0  0  0  0  0  0  0
   -8.1460    1.7643    6.6704 C   0  0  0  0  0  0  0  0  0  0  0  0
   -5.6149   -3.5506    6.9738 H   0  0  0  0  0  0  0  0  0  0  0  0
   -8.1334   -3.6200    7.0081 H   0  0  0  0  0  0  0  0  0  0  0  0
  -10.2583   -2.4173    7.1844 H   0  0  0  0  0  0  0  0  0  0  0  0
  -10.6195    1.3210    7.0912 H   0  0  0  0  0  0  0  0  0  0  0  0
  -11.1630   -0.8377    9.2152 H   0  0  0  0  0  0  0  0  0  0  0  0
  -10.2262    0.6328    9.4857 H   0  0  0  0  0  0  0  0  0  0  0  0
  -14.3527   -0.0520   10.7239 H   0  0  0  0  0  0  0  0  0  0  0  0
  -14.8466    0.6228   13.0277 H   0  0  0  0  0  0  0  0  0  0  0  0
  -13.4389    2.2864   14.2112 H   0  0  0  0  0  0  0  0  0  0  0  0
  -10.4355    2.9889    9.8216 H   0  0  0  0  0  0  0  0  0  0  0  0
  -13.5921   -0.6582    8.5115 H   0  0  0  0  0  0  0  0  0  0  0  0
  -14.3095    0.9651    8.3579 H   0  0  0  0  0  0  0  0  0  0  0  0
  -13.7083    0.0051    6.1394 H   0  0  0  0  0  0  0  0  0  0  0  0
  -12.7999    1.4893    6.4535 H   0  0  0  0  0  0  0  0  0  0  0  0
   -6.7433    3.3904    6.6916 H   0  0  0  0  0  0  0  0  0  0  0  0
   -6.7888    2.4691    8.1753 H   0  0  0  0  0  0  0  0  0  0  0  0
   -8.9254    2.3094    7.2075 H   0  0  0  0  0  0  0  0  0  0  0  0
   -8.2964    1.9127    5.5943 H   0  0  0  0  0  0  0  0  0  0  0  0
  1  2  1  0
  2  3  2  0
  3  4  1  0
  4  5  2  0
  5  6  1  0
  6  7  2  0
  7  8  1  0
  8  9  1  0
  9 10  1  0
 10 11  1  0
 11 12  2  0
 12 13  1  0
 13 14  2  0
 14 15  1  0
 15 16  2  0
 16 17  1  0
 17 18  2  0
 18 19  1  0
 10 20  1  0
 20 21  1  0
 21 22  1  0
  7 23  1  0
 23 24  2  0
 24 25  1  0
 25 26  2  0
 26 27  1  0
 25 28  1  0
 28 29  1  0
 29 30  1  0
 26  2  1  0
 24  4  1  0
 22  8  1  0
 30 23  1  0
 19 11  1  0
 19 15  1  0
  3 31  1  0
  5 32  1  0
  6 33  1  0
  8 34  1  0
  9 35  1  0
  9 36  1  0
 12 37  1  0
 13 38  1  0
 14 39  1  0
 18 40  1  0
 20 41  1  0
 20 42  1  0
 21 43  1  0
 21 44  1  0
 29 45  1  0
 29 46  1  0
 30 47  1  0
 30 48  1  0
M  END
>  <Energy>  (200) 
199.42560261086464

>  <compound_id>  (200) 
3985

>  <target_id>  (200) 
1

>  <reference_id>  (200) 
139

>  <inspiration_ids>  (200) 
[139, 65]

>  <energy_score>  (200) 
-53.33013016512888

>  <distance_score>  (200) 
1.0949948170377606

>  <path>  (200) 
/opt/xchem-fragalysis-2/maxwin/BulkDock/SCRATCH/505735/C3985-P139/C3985-P139.minimised.mol

>  <scratch_subdir>  (200) 
/opt/xchem-fragalysis-2/maxwin/BulkDock/SCRATCH/505735/C3985-P139

>  <fragmenstein_runtime>  (200) 
9.446686267852783

>  <fragmenstein_outcome>  (200) 
too moved

>  <fragmenstein_mode>  (200) 
expansion

>  <fragmenstein_error>  (200) 


$$$$
C3985-P65
     RDKit          3D

 48 53  0  0  0  0  0  0  0  0999 V2000
   -3.3373   -2.5428    6.9904 F   0  0  0  0  0  0  0  0  0  0  0  0
   -4.4662   -1.8384    6.9012 C   0  0  0  0  0  0  0  0  0  0  0  0
   -5.6796   -2.5148    6.8299 C   0  0  0  0  0  0  0  0  0  0  0  0
   -6.8853   -1.8089    6.9017 C   0  0  0  0  0  0  0  0  0  0  0  0
   -8.1230   -2.4606    6.9560 C   0  0  0  0  0  0  0  0  0  0  0  0
   -9.2909   -1.7246    7.1621 C   0  0  0  0  0  0  0  0  0  0  0  0
   -9.2542   -0.3240    7.2909 C   0  0  0  0  0  0  0  0  0  0  0  0
  -10.5131    0.4361    7.6436 C   0  0  0  0  0  0  0  0  0  0  0  0
  -11.0217    0.1208    9.0712 C   0  0  0  0  0  0  0  0  0  0  0  0
  -12.2585    0.9219    9.3429 N   0  0  0  0  0  0  0  0  0  0  0  0
  -12.6560    1.1279   10.6756 C   0  0  0  0  0  0  0  0  0  0  0  0
  -13.7530    0.5701   11.2381 C   0  0  0  0  0  0  0  0  0  0  0  0
  -14.1027    0.8491   12.6226 C   0  0  0  0  0  0  0  0  0  0  0  0
  -13.3449    1.6501   13.3928 C   0  0  0  0  0  0  0  0  0  0  0  0
  -12.1871    2.2510   12.8378 C   0  0  0  0  0  0  0  0  0  0  0  0
  -11.2750    3.0511   13.3469 N   0  0  0  0  0  0  0  0  0  0  0  0
  -10.3993    3.3813   12.3374 N   0  0  0  0  0  0  0  0  0  0  0  0
  -10.7913    2.7592   11.2474 C   0  0  0  0  0  0  0  0  0  0  0  0
  -11.8958    1.9895   11.5044 N   0  0  0  0  0  0  0  0  0  0  0  0
  -13.2708    0.6222    8.2909 C   0  0  0  0  0  0  0  0  0  0  0  0
  -12.6954    0.9148    6.8971 C   0  0  0  0  0  0  0  0  0  0  0  0
  -11.5042    0.1626    6.6427 O   0  0  0  0  0  0  0  0  0  0  0  0
   -8.0264    0.3400    7.1160 C   0  0  0  0  0  0  0  0  0  0  0  0
   -6.8420   -0.3999    6.9619 C   0  0  0  0  0  0  0  0  0  0  0  0
   -5.6032    0.2546    6.9004 C   0  0  0  0  0  0  0  0  0  0  0  0
   -4.4260   -0.4638    6.9005 C   0  0  0  0  0  0  0  0  0  0  0  0
   -3.2616    0.1881    6.8630 F   0  0  0  0  0  0  0  0  0  0  0  0
   -5.4659    1.6185    6.8714 O   0  0  0  0  0  0  0  0  0  0  0  0
   -6.6399    2.2626    6.3795 C   0  0  0  0  0  0  0  0  0  0  0  0
   -7.8888    1.8459    7.1458 C   0  0  0  0  0  0  0  0  0  0  0  0
   -5.6769   -3.5969    6.7869 H   0  0  0  0  0  0  0  0  0  0  0  0
   -8.1902   -3.5444    6.8890 H   0  0  0  0  0  0  0  0  0  0  0  0
  -10.2415   -2.2539    7.2417 H   0  0  0  0  0  0  0  0  0  0  0  0
  -10.3328    1.5139    7.6077 H   0  0  0  0  0  0  0  0  0  0  0  0
  -11.2770   -0.9386    9.1692 H   0  0  0  0  0  0  0  0  0  0  0  0
  -10.2390    0.3440    9.8051 H   0  0  0  0  0  0  0  0  0  0  0  0
  -14.3970   -0.1106   10.6903 H   0  0  0  0  0  0  0  0  0  0  0  0
  -15.0011    0.3856   13.0192 H   0  0  0  0  0  0  0  0  0  0  0  0
  -13.5974    1.8674   14.4245 H   0  0  0  0  0  0  0  0  0  0  0  0
  -10.3287    2.8198   10.2750 H   0  0  0  0  0  0  0  0  0  0  0  0
  -13.5596   -0.4342    8.3582 H   0  0  0  0  0  0  0  0  0  0  0  0
  -14.1649    1.2386    8.4393 H   0  0  0  0  0  0  0  0  0  0  0  0
  -13.4281    0.6433    6.1306 H   0  0  0  0  0  0  0  0  0  0  0  0
  -12.4739    1.9826    6.7816 H   0  0  0  0  0  0  0  0  0  0  0  0
   -6.7383    2.0545    5.3053 H   0  0  0  0  0  0  0  0  0  0  0  0
   -6.4902    3.3429    6.4824 H   0  0  0  0  0  0  0  0  0  0  0  0
   -7.8297    2.1733    8.1893 H   0  0  0  0  0  0  0  0  0  0  0  0
   -8.7380    2.3369    6.6619 H   0  0  0  0  0  0  0  0  0  0  0  0
  1  2  1  0
  2  3  2  0
  3  4  1  0
  4  5  2  0
  5  6  1  0
  6  7  2  0
  7  8  1  0
  8  9  1  0
  9 10  1  0
 10 11  1  0
 11 12  2  0
 12 13  1  0
 13 14  2  0
 14 15  1  0
 15 16  2  0
 16 17  1  0
 17 18  2  0
 18 19  1  0
 10 20  1  0
 20 21  1  0
 21 22  1  0
  7 23  1  0
 23 24  2  0
 24 25  1  0
 25 26  2  0
 26 27  1  0
 25 28  1  0
 28 29  1  0
 29 30  1  0
 26  2  1  0
 24  4  1  0
 22  8  1  0
 30 23  1  0
 19 11  1  0
 19 15  1  0
  3 31  1  0
  5 32  1  0
  6 33  1  0
  8 34  1  0
  9 35  1  0
  9 36  1  0
 12 37  1  0
 13 38  1  0
 14 39  1  0
 18 40  1  0
 20 41  1  0
 20 42  1  0
 21 43  1  0
 21 44  1  0
 29 45  1  0
 29 46  1  0
 30 47  1  0
 30 48  1  0
M  END
>  <Energy>  (201) 
195.37756632939093

>  <compound_id>  (201) 
3985

>  <target_id>  (201) 
1

>  <reference_id>  (201) 
65

>  <inspiration_ids>  (201) 
[139, 65]

>  <energy_score>  (201) 
-57.37816644660455

>  <distance_score>  (201) 
1.0439480845351115

>  <path>  (201) 
/opt/xchem-fragalysis-2/maxwin/BulkDock/SCRATCH/505735/C3985-P65/C3985-P65.minimised.mol

>  <scratch_subdir>  (201) 
/opt/xchem-fragalysis-2/maxwin/BulkDock/SCRATCH/505735/C3985-P65

>  <fragmenstein_runtime>  (201) 
9.866090059280396

>  <fragmenstein_outcome>  (201) 
too moved

>  <fragmenstein_mode>  (201) 
expansion

>  <fragmenstein_error>  (201) 


$$$$
C3986-P139
     RDKit          3D

 50 53  0  0  0  0  0  0  0  0999 V2000
  -10.0689   -1.6873    3.8205 C   0  0  0  0  0  0  0  0  0  0  0  0
  -10.9538   -2.5550    4.5429 O   0  0  0  0  0  0  0  0  0  0  0  0
  -10.8917   -2.6820    5.8898 C   0  0  0  0  0  0  0  0  0  0  0  0
  -11.8057   -3.0985    6.5845 O   0  0  0  0  0  0  0  0  0  0  0  0
   -9.6145   -2.2910    6.5107 C   0  0  0  0  0  0  0  0  0  0  0  0
   -8.5471   -3.1801    6.3599 C   0  0  0  0  0  0  0  0  0  0  0  0
   -7.2936   -2.8312    6.8353 C   0  0  0  0  0  0  0  0  0  0  0  0
   -7.1008   -1.5738    7.4074 C   0  0  0  0  0  0  0  0  0  0  0  0
   -5.8807   -1.2428    7.9396 O   0  0  0  0  0  0  0  0  0  0  0  0
   -4.8805   -1.0516    6.9489 C   0  0  0  0  0  0  0  0  0  0  0  0
   -4.7024   -2.1541    6.1900 F   0  0  0  0  0  0  0  0  0  0  0  0
   -3.7067   -0.7752    7.5628 F   0  0  0  0  0  0  0  0  0  0  0  0
   -5.1831   -0.0000    6.1549 F   0  0  0  0  0  0  0  0  0  0  0  0
   -8.1764   -0.6762    7.5819 C   0  0  0  0  0  0  0  0  0  0  0  0
   -7.8883    0.6567    8.2096 C   0  0  0  0  0  0  0  0  0  0  0  0
   -9.4833   -1.0693    7.2046 C   0  0  0  0  0  0  0  0  0  0  0  0
  -10.7335   -0.2571    7.5093 C   0  0  0  0  0  0  0  0  0  0  0  0
  -10.9614    0.0907    9.0106 C   0  0  0  0  0  0  0  0  0  0  0  0
  -12.0215    1.1260    9.1846 N   0  0  0  0  0  0  0  0  0  0  0  0
  -12.5132    1.3824   10.4637 C   0  0  0  0  0  0  0  0  0  0  0  0
  -13.6203    0.8149   10.9904 C   0  0  0  0  0  0  0  0  0  0  0  0
  -14.0304    1.1375   12.3509 C   0  0  0  0  0  0  0  0  0  0  0  0
  -13.3250    1.9931   13.1158 C   0  0  0  0  0  0  0  0  0  0  0  0
  -12.1610    2.6060   12.5821 C   0  0  0  0  0  0  0  0  0  0  0  0
  -11.2746    3.4392   13.0856 N   0  0  0  0  0  0  0  0  0  0  0  0
  -10.3547    3.7271   12.1046 N   0  0  0  0  0  0  0  0  0  0  0  0
  -10.6948    3.0477   11.0320 C   0  0  0  0  0  0  0  0  0  0  0  0
  -11.8088    2.2904   11.2799 N   0  0  0  0  0  0  0  0  0  0  0  0
  -12.8625    1.2888    7.9904 C   0  0  0  0  0  0  0  0  0  0  0  0
  -11.9687    1.6452    6.7821 C   0  0  0  0  0  0  0  0  0  0  0  0
  -10.7321    0.9138    6.6797 O   0  0  0  0  0  0  0  0  0  0  0  0
  -10.5490   -1.4401    2.8702 H   0  0  0  0  0  0  0  0  0  0  0  0
   -9.1302   -2.2062    3.6089 H   0  0  0  0  0  0  0  0  0  0  0  0
   -9.8931   -0.7493    4.3536 H   0  0  0  0  0  0  0  0  0  0  0  0
   -8.7025   -4.1441    5.8837 H   0  0  0  0  0  0  0  0  0  0  0  0
   -6.4813   -3.5494    6.7580 H   0  0  0  0  0  0  0  0  0  0  0  0
   -6.9274    1.0551    7.8686 H   0  0  0  0  0  0  0  0  0  0  0  0
   -8.6279    1.4179    7.9530 H   0  0  0  0  0  0  0  0  0  0  0  0
   -7.8589    0.5208    9.2913 H   0  0  0  0  0  0  0  0  0  0  0  0
  -11.6138   -0.8285    7.2074 H   0  0  0  0  0  0  0  0  0  0  0  0
  -10.0600    0.4742    9.4883 H   0  0  0  0  0  0  0  0  0  0  0  0
  -11.2385   -0.8198    9.5534 H   0  0  0  0  0  0  0  0  0  0  0  0
  -14.2119    0.0975   10.4304 H   0  0  0  0  0  0  0  0  0  0  0  0
  -14.9285    0.6622   12.7326 H   0  0  0  0  0  0  0  0  0  0  0  0
  -13.6172    2.2436   14.1293 H   0  0  0  0  0  0  0  0  0  0  0  0
  -10.1868    3.0525   10.0797 H   0  0  0  0  0  0  0  0  0  0  0  0
  -13.6022    2.0859    8.1319 H   0  0  0  0  0  0  0  0  0  0  0  0
  -13.4177    0.3618    7.8016 H   0  0  0  0  0  0  0  0  0  0  0  0
  -11.6938    2.7047    6.8300 H   0  0  0  0  0  0  0  0  0  0  0  0
  -12.5273    1.4981    5.8516 H   0  0  0  0  0  0  0  0  0  0  0  0
  1  2  1  0
  2  3  1  0
  3  4  2  0
  3  5  1  0
  5  6  2  0
  6  7  1  0
  7  8  2  0
  8  9  1  0
  9 10  1  0
 10 11  1  0
 10 12  1  0
 10 13  1  0
  8 14  1  0
 14 15  1  0
 14 16  2  0
 16 17  1  0
 17 18  1  0
 18 19  1  0
 19 20  1  0
 20 21  2  0
 21 22  1  0
 22 23  2  0
 23 24  1  0
 24 25  2  0
 25 26  1  0
 26 27  2  0
 27 28  1  0
 19 29  1  0
 29 30  1  0
 30 31  1  0
 16  5  1  0
 31 17  1  0
 28 20  1  0
 28 24  1  0
  1 32  1  0
  1 33  1  0
  1 34  1  0
  6 35  1  0
  7 36  1  0
 15 37  1  0
 15 38  1  0
 15 39  1  0
 17 40  1  0
 18 41  1  0
 18 42  1  0
 21 43  1  0
 22 44  1  0
 23 45  1  0
 27 46  1  0
 29 47  1  0
 29 48  1  0
 30 49  1  0
 30 50  1  0
M  END
>  <Energy>  (202) 
192.82850580792154

>  <compound_id>  (202) 
3986

>  <target_id>  (202) 
1

>  <reference_id>  (202) 
139

>  <inspiration_ids>  (202) 
[139, 73]

>  <energy_score>  (202) 
-40.92301466372902

>  <distance_score>  (202) 
0.6395744363073604

>  <path>  (202) 
/opt/xchem-fragalysis-2/maxwin/BulkDock/SCRATCH/505735/C3986-P139/C3986-P139.minimised.mol

>  <scratch_subdir>  (202) 
/opt/xchem-fragalysis-2/maxwin/BulkDock/SCRATCH/505735/C3986-P139

>  <fragmenstein_runtime>  (202) 
9.400627136230469

>  <fragmenstein_outcome>  (202) 
acceptable

>  <fragmenstein_mode>  (202) 
expansion

>  <fragmenstein_error>  (202) 


$$$$
C3986-P73
     RDKit          3D

 50 53  0  0  0  0  0  0  0  0999 V2000
  -12.4507   -1.1382    4.5213 C   0  0  0  0  0  0  0  0  0  0  0  0
  -11.1469   -1.1519    5.0986 O   0  0  0  0  0  0  0  0  0  0  0  0
  -10.8237   -2.2634    5.8006 C   0  0  0  0  0  0  0  0  0  0  0  0
  -11.4114   -3.3276    5.8169 O   0  0  0  0  0  0  0  0  0  0  0  0
   -9.5678   -1.9936    6.5346 C   0  0  0  0  0  0  0  0  0  0  0  0
   -8.5454   -2.9262    6.3608 C   0  0  0  0  0  0  0  0  0  0  0  0
   -7.2888   -2.6691    6.8839 C   0  0  0  0  0  0  0  0  0  0  0  0
   -7.0435   -1.4578    7.5343 C   0  0  0  0  0  0  0  0  0  0  0  0
   -5.7959   -1.1984    8.0412 O   0  0  0  0  0  0  0  0  0  0  0  0
   -4.8235   -1.0093    7.0198 C   0  0  0  0  0  0  0  0  0  0  0  0
   -4.6759   -2.1122    6.2534 F   0  0  0  0  0  0  0  0  0  0  0  0
   -3.6283   -0.7425    7.5943 F   0  0  0  0  0  0  0  0  0  0  0  0
   -5.1423    0.0457    6.2347 F   0  0  0  0  0  0  0  0  0  0  0  0
   -8.0799   -0.5319    7.7807 C   0  0  0  0  0  0  0  0  0  0  0  0
   -7.7465    0.7447    8.5088 C   0  0  0  0  0  0  0  0  0  0  0  0
   -9.3927   -0.8418    7.3440 C   0  0  0  0  0  0  0  0  0  0  0  0
  -10.6245   -0.0231    7.6981 C   0  0  0  0  0  0  0  0  0  0  0  0
  -10.8434    0.3392    9.1897 C   0  0  0  0  0  0  0  0  0  0  0  0
  -12.1545    1.0192    9.3610 N   0  0  0  0  0  0  0  0  0  0  0  0
  -12.6533    1.3604   10.6129 C   0  0  0  0  0  0  0  0  0  0  0  0
  -13.6756    0.6953   11.1921 C   0  0  0  0  0  0  0  0  0  0  0  0
  -14.1431    1.0804   12.5156 C   0  0  0  0  0  0  0  0  0  0  0  0
  -13.5784    2.0979   13.1928 C   0  0  0  0  0  0  0  0  0  0  0  0
  -12.5120    2.8223   12.5993 C   0  0  0  0  0  0  0  0  0  0  0  0
  -11.7666    3.8201   13.0230 N   0  0  0  0  0  0  0  0  0  0  0  0
  -10.8648    4.1285   12.0300 N   0  0  0  0  0  0  0  0  0  0  0  0
  -11.0857    3.3119   11.0251 C   0  0  0  0  0  0  0  0  0  0  0  0
  -12.0951    2.4377   11.3327 N   0  0  0  0  0  0  0  0  0  0  0  0
  -12.7720    1.5265    8.1237 C   0  0  0  0  0  0  0  0  0  0  0  0
  -11.6914    2.0595    7.1693 C   0  0  0  0  0  0  0  0  0  0  0  0
  -10.6431    1.1351    6.8506 O   0  0  0  0  0  0  0  0  0  0  0  0
  -12.7375   -0.0933    4.3710 H   0  0  0  0  0  0  0  0  0  0  0  0
  -13.1877   -1.5926    5.1894 H   0  0  0  0  0  0  0  0  0  0  0  0
  -12.4303   -1.6281    3.5475 H   0  0  0  0  0  0  0  0  0  0  0  0
   -8.7266   -3.8426    5.8077 H   0  0  0  0  0  0  0  0  0  0  0  0
   -6.5075   -3.4151    6.7625 H   0  0  0  0  0  0  0  0  0  0  0  0
   -6.7277    1.0782    8.2846 H   0  0  0  0  0  0  0  0  0  0  0  0
   -8.3926    1.5687    8.1943 H   0  0  0  0  0  0  0  0  0  0  0  0
   -7.8300    0.5962    9.5894 H   0  0  0  0  0  0  0  0  0  0  0  0
  -11.5073   -0.6206    7.4435 H   0  0  0  0  0  0  0  0  0  0  0  0
  -10.0715    1.0173    9.5536 H   0  0  0  0  0  0  0  0  0  0  0  0
  -10.8176   -0.5674    9.8056 H   0  0  0  0  0  0  0  0  0  0  0  0
  -14.1533   -0.1444   10.6975 H   0  0  0  0  0  0  0  0  0  0  0  0
  -14.9613    0.5143   12.9503 H   0  0  0  0  0  0  0  0  0  0  0  0
  -13.9111    2.3887   14.1834 H   0  0  0  0  0  0  0  0  0  0  0  0
  -10.5538    3.3012   10.0871 H   0  0  0  0  0  0  0  0  0  0  0  0
  -13.4875    2.3279    8.3430 H   0  0  0  0  0  0  0  0  0  0  0  0
  -13.3295    0.7104    7.6495 H   0  0  0  0  0  0  0  0  0  0  0  0
  -11.2125    2.9418    7.6088 H   0  0  0  0  0  0  0  0  0  0  0  0
  -12.1486    2.3774    6.2267 H   0  0  0  0  0  0  0  0  0  0  0  0
  1  2  1  0
  2  3  1  0
  3  4  2  0
  3  5  1  0
  5  6  2  0
  6  7  1  0
  7  8  2  0
  8  9  1  0
  9 10  1  0
 10 11  1  0
 10 12  1  0
 10 13  1  0
  8 14  1  0
 14 15  1  0
 14 16  2  0
 16 17  1  0
 17 18  1  0
 18 19  1  0
 19 20  1  0
 20 21  2  0
 21 22  1  0
 22 23  2  0
 23 24  1  0
 24 25  2  0
 25 26  1  0
 26 27  2  0
 27 28  1  0
 19 29  1  0
 29 30  1  0
 30 31  1  0
 16  5  1  0
 31 17  1  0
 28 20  1  0
 28 24  1  0
  1 32  1  0
  1 33  1  0
  1 34  1  0
  6 35  1  0
  7 36  1  0
 15 37  1  0
 15 38  1  0
 15 39  1  0
 17 40  1  0
 18 41  1  0
 18 42  1  0
 21 43  1  0
 22 44  1  0
 23 45  1  0
 27 46  1  0
 29 47  1  0
 29 48  1  0
 30 49  1  0
 30 50  1  0
M  END
>  <Energy>  (203) 
186.02611638745313

>  <compound_id>  (203) 
3986

>  <target_id>  (203) 
1

>  <reference_id>  (203) 
73

>  <inspiration_ids>  (203) 
[139, 73]

>  <energy_score>  (203) 
-47.72540408419354

>  <distance_score>  (203) 
0.6472812867918167

>  <path>  (203) 
/opt/xchem-fragalysis-2/maxwin/BulkDock/SCRATCH/505735/C3986-P73/C3986-P73.minimised.mol

>  <scratch_subdir>  (203) 
/opt/xchem-fragalysis-2/maxwin/BulkDock/SCRATCH/505735/C3986-P73

>  <fragmenstein_runtime>  (203) 
8.56511926651001

>  <fragmenstein_outcome>  (203) 
acceptable

>  <fragmenstein_mode>  (203) 
expansion

>  <fragmenstein_error>  (203) 


$$$$
C3988-P139
     RDKit          3D

 44 47  0  0  0  0  0  0  0  0999 V2000
  -15.8178    0.6451   13.5970 O   0  0  0  0  0  0  0  0  0  0  0  0
  -15.3073    0.4223   12.5111 C   0  0  0  0  0  0  0  0  0  0  0  0
  -15.8011   -0.5241   11.6918 O   0  0  0  0  0  0  0  0  0  0  0  0
  -14.0881    1.0698   11.9564 C   0  0  0  0  0  0  0  0  0  0  0  0
  -13.5440    0.7309   10.6367 C   0  0  0  0  0  0  0  0  0  0  0  0
  -12.4176    1.3210   10.1670 C   0  0  0  0  0  0  0  0  0  0  0  0
  -11.8092    0.9929    8.9373 N   0  0  0  0  0  0  0  0  0  0  0  0
  -11.6640   -0.4271    8.5325 C   0  0  0  0  0  0  0  0  0  0  0  0
  -12.4222   -0.7181    7.2350 C   0  0  0  0  0  0  0  0  0  0  0  0
  -12.0550    0.0884    6.1052 O   0  0  0  0  0  0  0  0  0  0  0  0
  -11.3409    1.2922    6.4313 C   0  0  0  0  0  0  0  0  0  0  0  0
   -9.8498    0.9818    6.3039 C   0  0  0  0  0  0  0  0  0  0  0  0
   -9.3671    0.1095    5.3056 C   0  0  0  0  0  0  0  0  0  0  0  0
   -8.0349   -0.3442    5.2816 C   0  0  0  0  0  0  0  0  0  0  0  0
   -7.1817   -0.0076    6.3077 C   0  0  0  0  0  0  0  0  0  0  0  0
   -7.6903    0.8077    7.3051 C   0  0  0  0  0  0  0  0  0  0  0  0
   -7.0798    0.7538    8.5167 O   0  0  0  0  0  0  0  0  0  0  0  0
   -7.8716   -0.1010    9.3411 C   0  0  0  0  0  0  0  0  0  0  0  0
   -9.0166    0.4898    9.7381 F   0  0  0  0  0  0  0  0  0  0  0  0
   -7.1700   -0.3839   10.4507 F   0  0  0  0  0  0  0  0  0  0  0  0
   -8.1521   -1.2619    8.7065 F   0  0  0  0  0  0  0  0  0  0  0  0
   -8.9306    1.4376    7.2316 C   0  0  0  0  0  0  0  0  0  0  0  0
  -11.8985    1.9107    7.7634 C   0  0  0  0  0  0  0  0  0  0  0  0
  -11.8037    2.2642   11.0236 N   0  0  0  0  0  0  0  0  0  0  0  0
  -10.6589    3.0028   10.8936 C   0  0  0  0  0  0  0  0  0  0  0  0
  -10.4441    3.7221   11.9721 N   0  0  0  0  0  0  0  0  0  0  0  0
  -11.4610    3.4577   12.8547 N   0  0  0  0  0  0  0  0  0  0  0  0
  -12.2776    2.5965   12.2870 C   0  0  0  0  0  0  0  0  0  0  0  0
  -13.4651    1.9704   12.7452 C   0  0  0  0  0  0  0  0  0  0  0  0
  -16.5420   -0.9485   12.1770 H   0  0  0  0  0  0  0  0  0  0  0  0
  -14.0703   -0.0130   10.0457 H   0  0  0  0  0  0  0  0  0  0  0  0
  -10.6049   -0.6543    8.3977 H   0  0  0  0  0  0  0  0  0  0  0  0
  -12.0251   -1.0885    9.3222 H   0  0  0  0  0  0  0  0  0  0  0  0
  -12.2833   -1.7654    6.9468 H   0  0  0  0  0  0  0  0  0  0  0  0
  -13.4970   -0.5712    7.3935 H   0  0  0  0  0  0  0  0  0  0  0  0
  -11.5623    2.0073    5.6289 H   0  0  0  0  0  0  0  0  0  0  0  0
  -10.0547   -0.2570    4.5418 H   0  0  0  0  0  0  0  0  0  0  0  0
   -7.7129   -1.0213    4.4951 H   0  0  0  0  0  0  0  0  0  0  0  0
   -6.1991   -0.4592    6.3889 H   0  0  0  0  0  0  0  0  0  0  0  0
   -9.2315    2.0971    8.0385 H   0  0  0  0  0  0  0  0  0  0  0  0
  -12.9605    2.1408    7.6058 H   0  0  0  0  0  0  0  0  0  0  0  0
  -11.3885    2.8535    7.9858 H   0  0  0  0  0  0  0  0  0  0  0  0
  -10.0279    2.9646   10.0223 H   0  0  0  0  0  0  0  0  0  0  0  0
  -13.8242    2.2407   13.7336 H   0  0  0  0  0  0  0  0  0  0  0  0
  1  2  2  0
  2  3  1  0
  2  4  1  0
  4  5  1  0
  5  6  2  0
  6  7  1  0
  7  8  1  0
  8  9  1  0
  9 10  1  0
 10 11  1  0
 11 12  1  0
 12 13  2  0
 13 14  1  0
 14 15  2  0
 15 16  1  0
 16 17  1  0
 17 18  1  0
 18 19  1  0
 18 20  1  0
 18 21  1  0
 16 22  2  0
 11 23  1  0
  6 24  1  0
 24 25  1  0
 25 26  2  0
 26 27  1  0
 27 28  2  0
 28 29  1  0
 29  4  2  0
 23  7  1  0
 28 24  1  0
 22 12  1  0
  3 30  1  0
  5 31  1  0
  8 32  1  0
  8 33  1  0
  9 34  1  0
  9 35  1  0
 11 36  1  0
 13 37  1  0
 14 38  1  0
 15 39  1  0
 22 40  1  0
 23 41  1  0
 23 42  1  0
 25 43  1  0
 29 44  1  0
M  END
>  <Energy>  (204) 
155.83625586344226

>  <compound_id>  (204) 
3988

>  <target_id>  (204) 
1

>  <reference_id>  (204) 
139

>  <inspiration_ids>  (204) 
[139, 84]

>  <energy_score>  (204) 
-35.766437819619

>  <distance_score>  (204) 
1.954068498304327

>  <path>  (204) 
/opt/xchem-fragalysis-2/maxwin/BulkDock/SCRATCH/505735/C3988-P139/C3988-P139.minimised.mol

>  <scratch_subdir>  (204) 
/opt/xchem-fragalysis-2/maxwin/BulkDock/SCRATCH/505735/C3988-P139

>  <fragmenstein_runtime>  (204) 
2.2938175201416016

>  <fragmenstein_outcome>  (204) 
too moved

>  <fragmenstein_mode>  (204) 
expansion

>  <fragmenstein_error>  (204) 


$$$$
C3988-P84
     RDKit          3D

 44 47  0  0  0  0  0  0  0  0999 V2000
  -15.6806    0.9312   13.8517 O   0  0  0  0  0  0  0  0  0  0  0  0
  -15.1757    0.6828   12.7691 C   0  0  0  0  0  0  0  0  0  0  0  0
  -15.6558   -0.3082   11.9935 O   0  0  0  0  0  0  0  0  0  0  0  0
  -13.9972    1.3558   12.1583 C   0  0  0  0  0  0  0  0  0  0  0  0
  -13.3630    0.8645   10.9345 C   0  0  0  0  0  0  0  0  0  0  0  0
  -12.2235    1.4178   10.4469 C   0  0  0  0  0  0  0  0  0  0  0  0
  -11.5109    0.8856    9.3551 N   0  0  0  0  0  0  0  0  0  0  0  0
  -11.5596   -0.5563    9.0559 C   0  0  0  0  0  0  0  0  0  0  0  0
  -12.2806   -0.7891    7.7212 C   0  0  0  0  0  0  0  0  0  0  0  0
  -11.7603   -0.0612    6.5937 O   0  0  0  0  0  0  0  0  0  0  0  0
  -10.6806    0.8268    6.9312 C   0  0  0  0  0  0  0  0  0  0  0  0
   -9.3467    0.0674    6.9977 C   0  0  0  0  0  0  0  0  0  0  0  0
   -9.2860   -1.3002    6.6670 C   0  0  0  0  0  0  0  0  0  0  0  0
   -8.1169   -2.0430    6.8082 C   0  0  0  0  0  0  0  0  0  0  0  0
   -6.9558   -1.4241    7.2135 C   0  0  0  0  0  0  0  0  0  0  0  0
   -6.9548   -0.0547    7.4577 C   0  0  0  0  0  0  0  0  0  0  0  0
   -5.8397    0.6559    7.7711 O   0  0  0  0  0  0  0  0  0  0  0  0
   -4.6075   -0.0686    7.8039 C   0  0  0  0  0  0  0  0  0  0  0  0
   -4.6082   -0.9554    8.8167 F   0  0  0  0  0  0  0  0  0  0  0  0
   -3.5934    0.7997    8.0012 F   0  0  0  0  0  0  0  0  0  0  0  0
   -4.3771   -0.7158    6.6419 F   0  0  0  0  0  0  0  0  0  0  0  0
   -8.1441    0.6892    7.3668 C   0  0  0  0  0  0  0  0  0  0  0  0
  -11.0974    1.6895    8.1685 C   0  0  0  0  0  0  0  0  0  0  0  0
  -11.7110    2.5192   11.1700 N   0  0  0  0  0  0  0  0  0  0  0  0
  -10.5592    3.2486   11.0376 C   0  0  0  0  0  0  0  0  0  0  0  0
  -10.4588    4.1424   11.9928 N   0  0  0  0  0  0  0  0  0  0  0  0
  -11.5566    4.0064   12.7966 N   0  0  0  0  0  0  0  0  0  0  0  0
  -12.3015    3.0335   12.3187 C   0  0  0  0  0  0  0  0  0  0  0  0
  -13.4809    2.4150   12.8113 C   0  0  0  0  0  0  0  0  0  0  0  0
  -16.4100   -0.6932   12.4891 H   0  0  0  0  0  0  0  0  0  0  0  0
  -13.8334    0.0188   10.4444 H   0  0  0  0  0  0  0  0  0  0  0  0
  -10.5374   -0.9415    9.0496 H   0  0  0  0  0  0  0  0  0  0  0  0
  -12.0663   -1.1135    9.8465 H   0  0  0  0  0  0  0  0  0  0  0  0
  -12.2732   -1.8537    7.4653 H   0  0  0  0  0  0  0  0  0  0  0  0
  -13.3332   -0.4982    7.8166 H   0  0  0  0  0  0  0  0  0  0  0  0
  -10.5819    1.5073    6.0758 H   0  0  0  0  0  0  0  0  0  0  0  0
  -10.1701   -1.8263    6.3087 H   0  0  0  0  0  0  0  0  0  0  0  0
   -8.1246   -3.1062    6.5841 H   0  0  0  0  0  0  0  0  0  0  0  0
   -6.0743   -2.0510    7.2987 H   0  0  0  0  0  0  0  0  0  0  0  0
   -8.1173    1.7531    7.5904 H   0  0  0  0  0  0  0  0  0  0  0  0
  -11.9590    2.3024    7.8742 H   0  0  0  0  0  0  0  0  0  0  0  0
  -10.2780    2.3625    8.4212 H   0  0  0  0  0  0  0  0  0  0  0  0
   -9.8189    3.0734   10.2776 H   0  0  0  0  0  0  0  0  0  0  0  0
  -13.9055    2.8045   13.7312 H   0  0  0  0  0  0  0  0  0  0  0  0
  1  2  2  0
  2  3  1  0
  2  4  1  0
  4  5  1  0
  5  6  2  0
  6  7  1  0
  7  8  1  0
  8  9  1  0
  9 10  1  0
 10 11  1  0
 11 12  1  0
 12 13  2  0
 13 14  1  0
 14 15  2  0
 15 16  1  0
 16 17  1  0
 17 18  1  0
 18 19  1  0
 18 20  1  0
 18 21  1  0
 16 22  2  0
 11 23  1  0
  6 24  1  0
 24 25  1  0
 25 26  2  0
 26 27  1  0
 27 28  2  0
 28 29  1  0
 29  4  2  0
 23  7  1  0
 28 24  1  0
 22 12  1  0
  3 30  1  0
  5 31  1  0
  8 32  1  0
  8 33  1  0
  9 34  1  0
  9 35  1  0
 11 36  1  0
 13 37  1  0
 14 38  1  0
 15 39  1  0
 22 40  1  0
 23 41  1  0
 23 42  1  0
 25 43  1  0
 29 44  1  0
M  END
>  <Energy>  (205) 
148.47994667383784

>  <compound_id>  (205) 
3988

>  <target_id>  (205) 
1

>  <reference_id>  (205) 
84

>  <inspiration_ids>  (205) 
[139, 84]

>  <energy_score>  (205) 
-43.122747009225066

>  <distance_score>  (205) 
1.782860250526851

>  <path>  (205) 
/opt/xchem-fragalysis-2/maxwin/BulkDock/SCRATCH/505735/C3988-P84/C3988-P84.minimised.mol

>  <scratch_subdir>  (205) 
/opt/xchem-fragalysis-2/maxwin/BulkDock/SCRATCH/505735/C3988-P84

>  <fragmenstein_runtime>  (205) 
2.9693477153778076

>  <fragmenstein_outcome>  (205) 
too moved

>  <fragmenstein_mode>  (205) 
expansion

>  <fragmenstein_error>  (205) 


$$$$
C3989-P139
     RDKit          3D

 47 50  0  0  0  0  0  0  0  0999 V2000
  -15.9296   -0.3059   11.6211 C   0  0  0  0  0  0  0  0  0  0  0  0
  -15.8402    1.1389   10.6052 S   0  0  0  0  0  0  0  0  0  0  0  0
  -16.1615    0.7267    9.2502 O   0  0  0  0  0  0  0  0  0  0  0  0
  -16.6441    2.1559   11.2608 O   0  0  0  0  0  0  0  0  0  0  0  0
  -14.1452    1.5664   10.7126 C   0  0  0  0  0  0  0  0  0  0  0  0
  -13.2152    1.2324    9.6235 C   0  0  0  0  0  0  0  0  0  0  0  0
  -11.9503    1.7160    9.6296 C   0  0  0  0  0  0  0  0  0  0  0  0
  -10.8993    1.3482    8.7478 N   0  0  0  0  0  0  0  0  0  0  0  0
   -9.8950    0.4560    9.3589 C   0  0  0  0  0  0  0  0  0  0  0  0
  -10.3271   -0.9786    9.1031 C   0  0  0  0  0  0  0  0  0  0  0  0
  -10.7067   -1.3215    7.7569 O   0  0  0  0  0  0  0  0  0  0  0  0
  -10.2828   -0.3453    6.8181 C   0  0  0  0  0  0  0  0  0  0  0  0
   -8.7419   -0.4551    6.6843 C   0  0  0  0  0  0  0  0  0  0  0  0
   -7.9996   -1.6447    6.8581 C   0  0  0  0  0  0  0  0  0  0  0  0
   -6.5984   -1.6229    6.9879 C   0  0  0  0  0  0  0  0  0  0  0  0
   -5.9307   -0.4053    7.0284 C   0  0  0  0  0  0  0  0  0  0  0  0
   -6.6633    0.7601    6.8391 C   0  0  0  0  0  0  0  0  0  0  0  0
   -6.0266    1.9407    7.0907 O   0  0  0  0  0  0  0  0  0  0  0  0
   -6.9108    2.9973    7.4652 C   0  0  0  0  0  0  0  0  0  0  0  0
   -7.4113    3.5837    6.3527 F   0  0  0  0  0  0  0  0  0  0  0  0
   -6.2105    3.9322    8.1398 F   0  0  0  0  0  0  0  0  0  0  0  0
   -7.9343    2.5623    8.2338 F   0  0  0  0  0  0  0  0  0  0  0  0
   -8.0183    0.7066    6.5070 C   0  0  0  0  0  0  0  0  0  0  0  0
  -11.0517    0.9982    7.2803 C   0  0  0  0  0  0  0  0  0  0  0  0
  -11.6082    2.5321   10.7421 N   0  0  0  0  0  0  0  0  0  0  0  0
  -10.4748    3.2516   11.0119 C   0  0  0  0  0  0  0  0  0  0  0  0
  -10.5213    3.7466   12.2275 N   0  0  0  0  0  0  0  0  0  0  0  0
  -11.7467    3.4190   12.7588 N   0  0  0  0  0  0  0  0  0  0  0  0
  -12.4161    2.7474   11.8478 C   0  0  0  0  0  0  0  0  0  0  0  0
  -13.7430    2.2554   11.8022 C   0  0  0  0  0  0  0  0  0  0  0  0
  -15.2857   -1.0722   11.1932 H   0  0  0  0  0  0  0  0  0  0  0  0
  -15.6202   -0.0550   12.6372 H   0  0  0  0  0  0  0  0  0  0  0  0
  -16.9661   -0.6481   11.6283 H   0  0  0  0  0  0  0  0  0  0  0  0
  -13.5556    0.5452    8.8543 H   0  0  0  0  0  0  0  0  0  0  0  0
   -9.8041    0.6142   10.4336 H   0  0  0  0  0  0  0  0  0  0  0  0
   -8.9032    0.6661    8.9681 H   0  0  0  0  0  0  0  0  0  0  0  0
   -9.5206   -1.6450    9.3910 H   0  0  0  0  0  0  0  0  0  0  0  0
  -11.1947   -1.1726    9.7408 H   0  0  0  0  0  0  0  0  0  0  0  0
  -10.6879   -0.6242    5.8376 H   0  0  0  0  0  0  0  0  0  0  0  0
   -8.5295   -2.5920    6.9609 H   0  0  0  0  0  0  0  0  0  0  0  0
   -6.0540   -2.5516    7.1369 H   0  0  0  0  0  0  0  0  0  0  0  0
   -4.8669   -0.3680    7.2424 H   0  0  0  0  0  0  0  0  0  0  0  0
   -8.5672    1.6109    6.2630 H   0  0  0  0  0  0  0  0  0  0  0  0
  -10.7201    1.8530    6.6836 H   0  0  0  0  0  0  0  0  0  0  0  0
  -12.1167    0.8474    7.0696 H   0  0  0  0  0  0  0  0  0  0  0  0
   -9.6743    3.3628   10.2977 H   0  0  0  0  0  0  0  0  0  0  0  0
  -14.4100    2.5317   12.6128 H   0  0  0  0  0  0  0  0  0  0  0  0
  1  2  1  0
  2  3  2  0
  2  4  2  0
  2  5  1  0
  5  6  1  0
  6  7  2  0
  7  8  1  0
  8  9  1  0
  9 10  1  0
 10 11  1  0
 11 12  1  0
 12 13  1  0
 13 14  2  0
 14 15  1  0
 15 16  2  0
 16 17  1  0
 17 18  1  0
 18 19  1  0
 19 20  1  0
 19 21  1  0
 19 22  1  0
 17 23  2  0
 12 24  1  0
  7 25  1  0
 25 26  1  0
 26 27  2  0
 27 28  1  0
 28 29  2  0
 29 30  1  0
 30  5  2  0
 24  8  1  0
 29 25  1  0
 23 13  1  0
  1 31  1  0
  1 32  1  0
  1 33  1  0
  6 34  1  0
  9 35  1  0
  9 36  1  0
 10 37  1  0
 10 38  1  0
 12 39  1  0
 14 40  1  0
 15 41  1  0
 16 42  1  0
 23 43  1  0
 24 44  1  0
 24 45  1  0
 26 46  1  0
 30 47  1  0
M  END
>  <Energy>  (206) 
201.05528868344948

>  <compound_id>  (206) 
3989

>  <target_id>  (206) 
1

>  <reference_id>  (206) 
139

>  <inspiration_ids>  (206) 
[139, 91]

>  <energy_score>  (206) 
-34.298217159188596

>  <distance_score>  (206) 
1.9924619018887997

>  <path>  (206) 
/opt/xchem-fragalysis-2/maxwin/BulkDock/SCRATCH/505735/C3989-P139/C3989-P139.minimised.mol

>  <scratch_subdir>  (206) 
/opt/xchem-fragalysis-2/maxwin/BulkDock/SCRATCH/505735/C3989-P139

>  <fragmenstein_runtime>  (206) 
8.242622137069702

>  <fragmenstein_outcome>  (206) 
too moved

>  <fragmenstein_mode>  (206) 
expansion

>  <fragmenstein_error>  (206) 


$$$$
C3990-P139
     RDKit          3D

 42 45  0  0  0  0  0  0  0  0999 V2000
   -5.6818    0.7605    6.9875 O   0  0  0  0  0  0  0  0  0  0  0  0
   -5.9239   -0.1771    6.2180 N   0  0  0  0  0  0  0  0  0  0  0  0
   -5.7850   -1.5400    6.8583 C   0  0  0  0  0  0  0  0  0  0  0  0
   -4.8094   -2.2189    6.1830 F   0  0  0  0  0  0  0  0  0  0  0  0
   -5.3003   -1.3861    8.1262 F   0  0  0  0  0  0  0  0  0  0  0  0
   -6.8960   -2.4568    6.9866 O   0  0  0  0  0  0  0  0  0  0  0  0
   -7.9620   -2.1373    6.2005 C   0  0  0  0  0  0  0  0  0  0  0  0
   -7.8463   -2.1244    4.8099 C   0  0  0  0  0  0  0  0  0  0  0  0
   -8.8761   -1.5859    4.0593 C   0  0  0  0  0  0  0  0  0  0  0  0
   -9.9806   -1.0372    4.7103 C   0  0  0  0  0  0  0  0  0  0  0  0
  -10.1271   -1.0671    6.1156 C   0  0  0  0  0  0  0  0  0  0  0  0
  -11.2161   -0.1547    6.6964 C   0  0  0  0  0  0  0  0  0  0  0  0
  -11.8941   -0.3139    8.1025 C   0  0  0  0  0  0  0  0  0  0  0  0
  -11.3919    0.6590    9.1288 N   0  0  0  0  0  0  0  0  0  0  0  0
  -12.1172    1.0391   10.2833 C   0  0  0  0  0  0  0  0  0  0  0  0
  -13.2310    0.3862   10.6994 C   0  0  0  0  0  0  0  0  0  0  0  0
  -13.9117    0.7466   11.9347 C   0  0  0  0  0  0  0  0  0  0  0  0
  -13.4368    1.7088   12.7423 C   0  0  0  0  0  0  0  0  0  0  0  0
  -12.2933    2.4386   12.3397 C   0  0  0  0  0  0  0  0  0  0  0  0
  -11.6157    3.4008   12.9263 N   0  0  0  0  0  0  0  0  0  0  0  0
  -10.6789    3.8573   12.0396 N   0  0  0  0  0  0  0  0  0  0  0  0
  -10.8101    3.1545   10.9378 C   0  0  0  0  0  0  0  0  0  0  0  0
  -11.7192    2.1385   11.1053 N   0  0  0  0  0  0  0  0  0  0  0  0
   -9.9616    0.8921    8.9236 C   0  0  0  0  0  0  0  0  0  0  0  0
   -9.7512    1.5500    7.5518 C   0  0  0  0  0  0  0  0  0  0  0  0
  -10.7207    1.1953    6.5492 O   0  0  0  0  0  0  0  0  0  0  0  0
   -9.1359   -1.7235    6.8490 C   0  0  0  0  0  0  0  0  0  0  0  0
   -6.9547   -2.5015    4.3173 H   0  0  0  0  0  0  0  0  0  0  0  0
   -8.8039   -1.5367    2.9759 H   0  0  0  0  0  0  0  0  0  0  0  0
  -10.7295   -0.5236    4.1053 H   0  0  0  0  0  0  0  0  0  0  0  0
  -12.0531   -0.2424    5.9888 H   0  0  0  0  0  0  0  0  0  0  0  0
  -12.9632   -0.1124    7.9578 H   0  0  0  0  0  0  0  0  0  0  0  0
  -11.8031   -1.3378    8.4628 H   0  0  0  0  0  0  0  0  0  0  0  0
  -13.6447   -0.4512   10.1489 H   0  0  0  0  0  0  0  0  0  0  0  0
  -14.8082    0.1942   12.1976 H   0  0  0  0  0  0  0  0  0  0  0  0
  -13.9188    1.9759   13.6754 H   0  0  0  0  0  0  0  0  0  0  0  0
  -10.2870    3.3497   10.0169 H   0  0  0  0  0  0  0  0  0  0  0  0
   -9.4443   -0.0675    8.9760 H   0  0  0  0  0  0  0  0  0  0  0  0
   -9.4723    1.4669    9.7063 H   0  0  0  0  0  0  0  0  0  0  0  0
   -9.8145    2.6384    7.6572 H   0  0  0  0  0  0  0  0  0  0  0  0
   -8.7472    1.3318    7.1724 H   0  0  0  0  0  0  0  0  0  0  0  0
   -9.1977   -1.8088    7.9291 H   0  0  0  0  0  0  0  0  0  0  0  0
  1  2  2  0
  2  3  1  0
  3  4  1  0
  3  5  1  0
  3  6  1  0
  6  7  1  0
  7  8  2  0
  8  9  1  0
  9 10  2  0
 10 11  1  0
 11 12  1  0
 12 13  1  0
 13 14  1  0
 14 15  1  0
 15 16  2  0
 16 17  1  0
 17 18  2  0
 18 19  1  0
 19 20  2  0
 20 21  1  0
 21 22  2  0
 22 23  1  0
 14 24  1  0
 24 25  1  0
 25 26  1  0
 11 27  2  0
 27  7  1  0
 26 12  1  0
 23 15  1  0
 23 19  1  0
  8 28  1  0
  9 29  1  0
 10 30  1  0
 12 31  1  0
 13 32  1  0
 13 33  1  0
 16 34  1  0
 17 35  1  0
 18 36  1  0
 22 37  1  0
 24 38  1  0
 24 39  1  0
 25 40  1  0
 25 41  1  0
 27 42  1  0
M  END
>  <Energy>  (207) 
196.99458597994226

>  <compound_id>  (207) 
3990

>  <target_id>  (207) 
1

>  <reference_id>  (207) 
139

>  <inspiration_ids>  (207) 
[139, 95]

>  <energy_score>  (207) 
-39.204436165476636

>  <distance_score>  (207) 
1.5038037427891162

>  <path>  (207) 
/opt/xchem-fragalysis-2/maxwin/BulkDock/SCRATCH/505735/C3990-P139/C3990-P139.minimised.mol

>  <scratch_subdir>  (207) 
/opt/xchem-fragalysis-2/maxwin/BulkDock/SCRATCH/505735/C3990-P139

>  <fragmenstein_runtime>  (207) 
12.922693014144897

>  <fragmenstein_outcome>  (207) 
too moved

>  <fragmenstein_mode>  (207) 
expansion

>  <fragmenstein_error>  (207) 


$$$$
C3990-P95
     RDKit          3D

 42 45  0  0  0  0  0  0  0  0999 V2000
   -6.0095    0.9709    7.1231 O   0  0  0  0  0  0  0  0  0  0  0  0
   -6.0250    0.0337    6.3154 N   0  0  0  0  0  0  0  0  0  0  0  0
   -5.7302   -1.3082    6.9446 C   0  0  0  0  0  0  0  0  0  0  0  0
   -4.7944   -1.9453    6.1762 F   0  0  0  0  0  0  0  0  0  0  0  0
   -5.1275   -1.1150    8.1533 F   0  0  0  0  0  0  0  0  0  0  0  0
   -6.7730   -2.2678    7.1913 O   0  0  0  0  0  0  0  0  0  0  0  0
   -7.8682   -2.0672    6.4091 C   0  0  0  0  0  0  0  0  0  0  0  0
   -7.7756   -2.1849    5.0195 C   0  0  0  0  0  0  0  0  0  0  0  0
   -8.8637   -1.8313    4.2468 C   0  0  0  0  0  0  0  0  0  0  0  0
  -10.0179   -1.3721    4.8759 C   0  0  0  0  0  0  0  0  0  0  0  0
  -10.1350   -1.2630    6.2825 C   0  0  0  0  0  0  0  0  0  0  0  0
  -11.4266   -0.6440    6.8123 C   0  0  0  0  0  0  0  0  0  0  0  0
  -11.7942   -0.4979    8.3328 C   0  0  0  0  0  0  0  0  0  0  0  0
  -11.5589    0.8357    9.0182 N   0  0  0  0  0  0  0  0  0  0  0  0
  -12.1175    1.0766   10.3135 C   0  0  0  0  0  0  0  0  0  0  0  0
  -13.1724    0.4005   10.8341 C   0  0  0  0  0  0  0  0  0  0  0  0
  -13.7449    0.7629   12.1238 C   0  0  0  0  0  0  0  0  0  0  0  0
  -13.2447    1.7695   12.8593 C   0  0  0  0  0  0  0  0  0  0  0  0
  -12.1291    2.4903   12.3695 C   0  0  0  0  0  0  0  0  0  0  0  0
  -11.4408    3.4910   12.8756 N   0  0  0  0  0  0  0  0  0  0  0  0
  -10.4323    3.7933   11.9946 N   0  0  0  0  0  0  0  0  0  0  0  0
  -10.5182    2.9535   10.9863 C   0  0  0  0  0  0  0  0  0  0  0  0
  -11.6000    2.1220   11.1338 N   0  0  0  0  0  0  0  0  0  0  0  0
  -11.6448    1.9618    8.0584 C   0  0  0  0  0  0  0  0  0  0  0  0
  -10.9092    1.6509    6.7689 C   0  0  0  0  0  0  0  0  0  0  0  0
  -11.5987    0.6002    6.1015 O   0  0  0  0  0  0  0  0  0  0  0  0
   -9.0494   -1.6664    7.0521 C   0  0  0  0  0  0  0  0  0  0  0  0
   -6.8651   -2.5396    4.5460 H   0  0  0  0  0  0  0  0  0  0  0  0
   -8.8252   -1.9009    3.1642 H   0  0  0  0  0  0  0  0  0  0  0  0
  -10.8660   -1.0808    4.2539 H   0  0  0  0  0  0  0  0  0  0  0  0
  -12.2049   -1.3109    6.4157 H   0  0  0  0  0  0  0  0  0  0  0  0
  -12.8733   -0.6897    8.3735 H   0  0  0  0  0  0  0  0  0  0  0  0
  -11.3001   -1.2689    8.9212 H   0  0  0  0  0  0  0  0  0  0  0  0
  -13.6742   -0.4005   10.3037 H   0  0  0  0  0  0  0  0  0  0  0  0
  -14.6095    0.2038   12.4683 H   0  0  0  0  0  0  0  0  0  0  0  0
  -13.6654    2.0543   13.8173 H   0  0  0  0  0  0  0  0  0  0  0  0
   -9.8271    2.8873   10.1606 H   0  0  0  0  0  0  0  0  0  0  0  0
  -11.2315    2.8829    8.4736 H   0  0  0  0  0  0  0  0  0  0  0  0
  -12.7047    2.1470    7.8394 H   0  0  0  0  0  0  0  0  0  0  0  0
  -10.9378    2.5255    6.1111 H   0  0  0  0  0  0  0  0  0  0  0  0
   -9.8564    1.3981    6.9392 H   0  0  0  0  0  0  0  0  0  0  0  0
   -9.0791   -1.5974    8.1363 H   0  0  0  0  0  0  0  0  0  0  0  0
  1  2  2  0
  2  3  1  0
  3  4  1  0
  3  5  1  0
  3  6  1  0
  6  7  1  0
  7  8  2  0
  8  9  1  0
  9 10  2  0
 10 11  1  0
 11 12  1  0
 12 13  1  0
 13 14  1  0
 14 15  1  0
 15 16  2  0
 16 17  1  0
 17 18  2  0
 18 19  1  0
 19 20  2  0
 20 21  1  0
 21 22  2  0
 22 23  1  0
 14 24  1  0
 24 25  1  0
 25 26  1  0
 11 27  2  0
 27  7  1  0
 26 12  1  0
 23 15  1  0
 23 19  1  0
  8 28  1  0
  9 29  1  0
 10 30  1  0
 12 31  1  0
 13 32  1  0
 13 33  1  0
 16 34  1  0
 17 35  1  0
 18 36  1  0
 22 37  1  0
 24 38  1  0
 24 39  1  0
 25 40  1  0
 25 41  1  0
 27 42  1  0
M  END
>  <Energy>  (208) 
184.28300739726726

>  <compound_id>  (208) 
3990

>  <target_id>  (208) 
1

>  <reference_id>  (208) 
95

>  <inspiration_ids>  (208) 
[139, 95]

>  <energy_score>  (208) 
-51.916014748153884

>  <distance_score>  (208) 
1.6597593410336744

>  <path>  (208) 
/opt/xchem-fragalysis-2/maxwin/BulkDock/SCRATCH/505735/C3990-P95/C3990-P95.minimised.mol

>  <scratch_subdir>  (208) 
/opt/xchem-fragalysis-2/maxwin/BulkDock/SCRATCH/505735/C3990-P95

>  <fragmenstein_runtime>  (208) 
14.032398700714111

>  <fragmenstein_outcome>  (208) 
too moved

>  <fragmenstein_mode>  (208) 
expansion

>  <fragmenstein_error>  (208) 


$$$$
C3991-P139
     RDKit          3D

 50 53  0  0  0  0  0  0  0  0999 V2000
   -4.3825   -1.0692    8.1096 C   0  0  0  0  0  0  0  0  0  0  0  0
   -5.7775   -1.0958    7.5506 C   0  0  0  0  0  0  0  0  0  0  0  0
   -6.5913   -0.6469    8.5435 F   0  0  0  0  0  0  0  0  0  0  0  0
   -6.1989   -2.4306    7.1161 N   0  0  0  0  0  0  0  0  0  0  0  0
   -7.4781   -2.7580    7.5376 F   0  0  0  0  0  0  0  0  0  0  0  0
   -5.6586   -0.1103    6.5011 O   0  0  0  0  0  0  0  0  0  0  0  0
   -6.8959    0.1067    5.9803 C   0  0  0  0  0  0  0  0  0  0  0  0
   -7.3019   -0.7536    4.9857 C   0  0  0  0  0  0  0  0  0  0  0  0
   -8.6565   -0.8747    4.7792 C   0  0  0  0  0  0  0  0  0  0  0  0
   -9.5724   -0.1239    5.5410 C   0  0  0  0  0  0  0  0  0  0  0  0
   -9.1589    0.8397    6.4676 C   0  0  0  0  0  0  0  0  0  0  0  0
  -10.0671    1.5922    7.4456 C   0  0  0  0  0  0  0  0  0  0  0  0
   -9.4790    1.2778    8.7469 O   0  0  0  0  0  0  0  0  0  0  0  0
   -9.7769   -0.0618    9.1677 C   0  0  0  0  0  0  0  0  0  0  0  0
  -11.2292   -0.4505    8.9108 C   0  0  0  0  0  0  0  0  0  0  0  0
  -12.0892    0.7564    8.8023 N   0  0  0  0  0  0  0  0  0  0  0  0
  -12.5963    1.2388   10.0423 C   0  0  0  0  0  0  0  0  0  0  0  0
  -13.6732    0.6159   10.5830 C   0  0  0  0  0  0  0  0  0  0  0  0
  -14.1583    0.9531   11.9096 C   0  0  0  0  0  0  0  0  0  0  0  0
  -13.5189    1.8494   12.6787 C   0  0  0  0  0  0  0  0  0  0  0  0
  -12.3714    2.5066   12.1693 C   0  0  0  0  0  0  0  0  0  0  0  0
  -11.5475    3.3653   12.7278 N   0  0  0  0  0  0  0  0  0  0  0  0
  -10.6195    3.7227   11.7890 N   0  0  0  0  0  0  0  0  0  0  0  0
  -10.8977    3.0671   10.6828 C   0  0  0  0  0  0  0  0  0  0  0  0
  -11.9650    2.2251   10.8606 N   0  0  0  0  0  0  0  0  0  0  0  0
  -11.6586    1.5391    7.6275 C   0  0  0  0  0  0  0  0  0  0  0  0
  -12.1811    2.8444    7.7479 O   0  0  0  0  0  0  0  0  0  0  0  0
  -12.3116    0.9781    6.5189 O   0  0  0  0  0  0  0  0  0  0  0  0
   -7.7666    0.9879    6.6348 C   0  0  0  0  0  0  0  0  0  0  0  0
   -7.2170    2.0287    7.4182 N   0  0  0  0  0  0  0  0  0  0  0  0
   -4.0418   -0.0364    8.2596 H   0  0  0  0  0  0  0  0  0  0  0  0
   -3.6603   -1.5299    7.4251 H   0  0  0  0  0  0  0  0  0  0  0  0
   -4.2999   -1.5427    9.0751 H   0  0  0  0  0  0  0  0  0  0  0  0
   -5.5252   -3.1192    7.4268 H   0  0  0  0  0  0  0  0  0  0  0  0
   -6.6039   -1.4043    4.4723 H   0  0  0  0  0  0  0  0  0  0  0  0
   -9.0356   -1.5957    4.0583 H   0  0  0  0  0  0  0  0  0  0  0  0
  -10.6319   -0.3099    5.3767 H   0  0  0  0  0  0  0  0  0  0  0  0
   -9.8397    2.6533    7.2703 H   0  0  0  0  0  0  0  0  0  0  0  0
   -9.5685   -0.0954   10.2379 H   0  0  0  0  0  0  0  0  0  0  0  0
   -9.0939   -0.7762    8.6980 H   0  0  0  0  0  0  0  0  0  0  0  0
  -11.5822   -1.0977    9.7156 H   0  0  0  0  0  0  0  0  0  0  0  0
  -11.3085   -1.0343    7.9860 H   0  0  0  0  0  0  0  0  0  0  0  0
  -14.1849   -0.1813   10.0498 H   0  0  0  0  0  0  0  0  0  0  0  0
  -15.0463    0.4433   12.2703 H   0  0  0  0  0  0  0  0  0  0  0  0
  -13.8558    2.1038   13.6773 H   0  0  0  0  0  0  0  0  0  0  0  0
  -10.3663    3.1817    9.7546 H   0  0  0  0  0  0  0  0  0  0  0  0
  -13.0819    2.6884    8.0648 H   0  0  0  0  0  0  0  0  0  0  0  0
  -12.9950    0.4332    6.9415 H   0  0  0  0  0  0  0  0  0  0  0  0
   -7.7439    2.1295    8.2932 H   0  0  0  0  0  0  0  0  0  0  0  0
   -6.2337    1.8716    7.6056 H   0  0  0  0  0  0  0  0  0  0  0  0
  1  2  1  0
  2  3  1  0
  2  4  1  0
  4  5  1  0
  2  6  1  0
  6  7  1  0
  7  8  2  0
  8  9  1  0
  9 10  2  0
 10 11  1  0
 11 12  1  0
 12 13  1  0
 13 14  1  0
 14 15  1  0
 15 16  1  0
 16 17  1  0
 17 18  2  0
 18 19  1  0
 19 20  2  0
 20 21  1  0
 21 22  2  0
 22 23  1  0
 23 24  2  0
 24 25  1  0
 16 26  1  0
 26 27  1  0
 26 28  1  0
 11 29  2  0
 29 30  1  0
 29  7  1  0
 26 12  1  0
 25 17  1  0
 25 21  1  0
  1 31  1  0
  1 32  1  0
  1 33  1  0
  4 34  1  0
  8 35  1  0
  9 36  1  0
 10 37  1  0
 12 38  1  0
 14 39  1  0
 14 40  1  0
 15 41  1  0
 15 42  1  0
 18 43  1  0
 19 44  1  0
 20 45  1  0
 24 46  1  0
 27 47  1  0
 28 48  1  0
 30 49  1  0
 30 50  1  0
M  END
>  <Energy>  (209) 
128.45556660546856

>  <compound_id>  (209) 
3991

>  <target_id>  (209) 
1

>  <reference_id>  (209) 
139

>  <inspiration_ids>  (209) 
[139, 99]

>  <energy_score>  (209) 
-42.5124546918301

>  <distance_score>  (209) 
2.464121386129872

>  <path>  (209) 
/opt/xchem-fragalysis-2/maxwin/BulkDock/SCRATCH/505735/C3991-P139/C3991-P139.minimised.mol

>  <scratch_subdir>  (209) 
/opt/xchem-fragalysis-2/maxwin/BulkDock/SCRATCH/505735/C3991-P139

>  <fragmenstein_runtime>  (209) 
5.700637578964233

>  <fragmenstein_outcome>  (209) 
too moved

>  <fragmenstein_mode>  (209) 
expansion

>  <fragmenstein_error>  (209) 


$$$$
C3991-P99
     RDKit          3D

 50 53  0  0  0  0  0  0  0  0999 V2000
   -5.2647   -2.0781    7.2967 C   0  0  0  0  0  0  0  0  0  0  0  0
   -6.4999   -1.3410    7.7355 C   0  0  0  0  0  0  0  0  0  0  0  0
   -6.8297   -1.5901    9.0047 F   0  0  0  0  0  0  0  0  0  0  0  0
   -7.6188   -1.8236    6.9293 N   0  0  0  0  0  0  0  0  0  0  0  0
   -7.9713   -3.1210    7.2577 F   0  0  0  0  0  0  0  0  0  0  0  0
   -6.0932    0.0358    7.7909 O   0  0  0  0  0  0  0  0  0  0  0  0
   -6.8782    0.7803    6.9698 C   0  0  0  0  0  0  0  0  0  0  0  0
   -6.3629    0.9147    5.6882 C   0  0  0  0  0  0  0  0  0  0  0  0
   -7.2617    1.1921    4.6974 C   0  0  0  0  0  0  0  0  0  0  0  0
   -8.6183    1.3533    5.0321 C   0  0  0  0  0  0  0  0  0  0  0  0
   -9.1320    1.3352    6.3649 C   0  0  0  0  0  0  0  0  0  0  0  0
  -10.6571    1.3821    6.5399 C   0  0  0  0  0  0  0  0  0  0  0  0
  -11.1782    0.0762    6.1810 O   0  0  0  0  0  0  0  0  0  0  0  0
  -11.0167   -0.8466    7.2712 C   0  0  0  0  0  0  0  0  0  0  0  0
  -11.7667   -0.3986    8.5238 C   0  0  0  0  0  0  0  0  0  0  0  0
  -11.4603    1.0023    8.9844 N   0  0  0  0  0  0  0  0  0  0  0  0
  -12.0800    1.3938   10.2252 C   0  0  0  0  0  0  0  0  0  0  0  0
  -13.2128    0.8158   10.7096 C   0  0  0  0  0  0  0  0  0  0  0  0
  -13.7915    1.2041   11.9859 C   0  0  0  0  0  0  0  0  0  0  0  0
  -13.2278    2.1556   12.7459 C   0  0  0  0  0  0  0  0  0  0  0  0
  -12.0429    2.7850   12.2929 C   0  0  0  0  0  0  0  0  0  0  0  0
  -11.2844    3.7054   12.8470 N   0  0  0  0  0  0  0  0  0  0  0  0
  -10.2227    3.9290   12.0085 N   0  0  0  0  0  0  0  0  0  0  0  0
  -10.3539    3.1327   10.9690 C   0  0  0  0  0  0  0  0  0  0  0  0
  -11.5027    2.3891   11.0659 N   0  0  0  0  0  0  0  0  0  0  0  0
  -11.4744    1.9155    7.8095 C   0  0  0  0  0  0  0  0  0  0  0  0
  -11.0473    3.2118    8.1274 O   0  0  0  0  0  0  0  0  0  0  0  0
  -12.8426    2.0724    7.4379 O   0  0  0  0  0  0  0  0  0  0  0  0
   -8.2181    1.0489    7.3670 C   0  0  0  0  0  0  0  0  0  0  0  0
   -8.5286    1.0606    8.7250 N   0  0  0  0  0  0  0  0  0  0  0  0
   -5.4004   -3.1622    7.2870 H   0  0  0  0  0  0  0  0  0  0  0  0
   -4.9601   -1.7825    6.2852 H   0  0  0  0  0  0  0  0  0  0  0  0
   -4.4153   -1.8415    7.9476 H   0  0  0  0  0  0  0  0  0  0  0  0
   -7.3962   -1.7296    5.9443 H   0  0  0  0  0  0  0  0  0  0  0  0
   -5.3325    0.6774    5.4561 H   0  0  0  0  0  0  0  0  0  0  0  0
   -6.9510    1.2464    3.6578 H   0  0  0  0  0  0  0  0  0  0  0  0
   -9.3206    1.5100    4.2105 H   0  0  0  0  0  0  0  0  0  0  0  0
  -10.9909    2.0447    5.7271 H   0  0  0  0  0  0  0  0  0  0  0  0
   -9.9636   -1.0062    7.4898 H   0  0  0  0  0  0  0  0  0  0  0  0
  -11.4149   -1.8109    6.9371 H   0  0  0  0  0  0  0  0  0  0  0  0
  -11.5446   -1.0903    9.3409 H   0  0  0  0  0  0  0  0  0  0  0  0
  -12.8373   -0.4697    8.2936 H   0  0  0  0  0  0  0  0  0  0  0  0
  -13.7553    0.0463   10.1720 H   0  0  0  0  0  0  0  0  0  0  0  0
  -14.7002    0.7036   12.3060 H   0  0  0  0  0  0  0  0  0  0  0  0
  -13.6437    2.4610   13.7001 H   0  0  0  0  0  0  0  0  0  0  0  0
   -9.6569    3.0546   10.1481 H   0  0  0  0  0  0  0  0  0  0  0  0
  -11.8218    3.5720    8.5874 H   0  0  0  0  0  0  0  0  0  0  0  0
  -12.9538    1.5356    6.6340 H   0  0  0  0  0  0  0  0  0  0  0  0
   -9.4901    0.8809    9.0037 H   0  0  0  0  0  0  0  0  0  0  0  0
   -7.8472    0.5962    9.3219 H   0  0  0  0  0  0  0  0  0  0  0  0
  1  2  1  0
  2  3  1  0
  2  4  1  0
  4  5  1  0
  2  6  1  0
  6  7  1  0
  7  8  2  0
  8  9  1  0
  9 10  2  0
 10 11  1  0
 11 12  1  0
 12 13  1  0
 13 14  1  0
 14 15  1  0
 15 16  1  0
 16 17  1  0
 17 18  2  0
 18 19  1  0
 19 20  2  0
 20 21  1  0
 21 22  2  0
 22 23  1  0
 23 24  2  0
 24 25  1  0
 16 26  1  0
 26 27  1  0
 26 28  1  0
 11 29  2  0
 29 30  1  0
 29  7  1  0
 26 12  1  0
 25 17  1  0
 25 21  1  0
  1 31  1  0
  1 32  1  0
  1 33  1  0
  4 34  1  0
  8 35  1  0
  9 36  1  0
 10 37  1  0
 12 38  1  0
 14 39  1  0
 14 40  1  0
 15 41  1  0
 15 42  1  0
 18 43  1  0
 19 44  1  0
 20 45  1  0
 24 46  1  0
 27 47  1  0
 28 48  1  0
 30 49  1  0
 30 50  1  0
M  END
>  <Energy>  (210) 
114.70622057197497

>  <compound_id>  (210) 
3991

>  <target_id>  (210) 
1

>  <reference_id>  (210) 
99

>  <inspiration_ids>  (210) 
[139, 99]

>  <energy_score>  (210) 
-56.26180072532293

>  <distance_score>  (210) 
2.1190441703043787

>  <path>  (210) 
/opt/xchem-fragalysis-2/maxwin/BulkDock/SCRATCH/505735/C3991-P99/C3991-P99.minimised.mol

>  <scratch_subdir>  (210) 
/opt/xchem-fragalysis-2/maxwin/BulkDock/SCRATCH/505735/C3991-P99

>  <fragmenstein_runtime>  (210) 
6.675403118133545

>  <fragmenstein_outcome>  (210) 
too moved

>  <fragmenstein_mode>  (210) 
expansion

>  <fragmenstein_error>  (210) 


$$$$
C2740-P139
     RDKit          3D

 72 79  0  0  0  0  0  0  0  0999 V2000
   -4.8233   -0.7109    5.9658 F   0  0  0  0  0  0  0  0  0  0  0  0
   -4.7768   -0.0738    7.1612 C   0  0  0  0  0  0  0  0  0  0  0  0
   -3.5256   -0.3081    7.6463 F   0  0  0  0  0  0  0  0  0  0  0  0
   -4.8301    1.3250    6.9435 O   0  0  0  0  0  0  0  0  0  0  0  0
   -6.1414    1.8463    6.8213 C   0  0  0  0  0  0  0  0  0  0  0  0
   -6.0897    3.2863    6.6994 O   0  0  0  0  0  0  0  0  0  0  0  0
   -7.0736    3.9110    7.4384 C   0  0  0  0  0  0  0  0  0  0  0  0
   -8.4273    3.5930    7.2829 C   0  0  0  0  0  0  0  0  0  0  0  0
   -9.3984    4.1751    8.1151 C   0  0  0  0  0  0  0  0  0  0  0  0
   -8.9930    5.0720    9.1138 C   0  0  0  0  0  0  0  0  0  0  0  0
   -9.7441    5.6952   10.0746 N   0  0  0  0  0  0  0  0  0  0  0  0
   -8.8803    6.3755   10.7832 C   0  0  0  0  0  0  0  0  0  0  0  0
   -9.2248    7.3366   12.1780 S   0  0  0  0  0  0  0  0  0  0  0  0
  -10.6365    8.1318   11.5440 C   0  0  0  0  0  0  0  0  0  0  0  0
  -10.5192    9.3488   10.9687 C   0  0  0  0  0  0  0  0  0  0  0  0
  -11.6923   10.0059   10.4135 C   0  0  0  0  0  0  0  0  0  0  0  0
  -12.9040    9.4231   10.4518 C   0  0  0  0  0  0  0  0  0  0  0  0
  -13.0487    8.1465   11.0569 C   0  0  0  0  0  0  0  0  0  0  0  0
  -14.0961    7.3679   11.2196 N   0  0  0  0  0  0  0  0  0  0  0  0
  -13.6792    6.2491   11.9009 N   0  0  0  0  0  0  0  0  0  0  0  0
  -12.3897    6.3774   12.1383 C   0  0  0  0  0  0  0  0  0  0  0  0
  -11.9151    7.5458   11.5999 N   0  0  0  0  0  0  0  0  0  0  0  0
   -7.6057    6.2501   10.3046 N   0  0  0  0  0  0  0  0  0  0  0  0
   -7.6465    5.4134    9.2121 C   0  0  0  0  0  0  0  0  0  0  0  0
   -6.6582    4.8808    8.3669 C   0  0  0  0  0  0  0  0  0  0  0  0
   -5.6759   -0.6295    8.1228 O   0  0  0  0  0  0  0  0  0  0  0  0
   -6.8020   -1.2109    7.6133 C   0  0  0  0  0  0  0  0  0  0  0  0
   -6.7624   -2.3484    6.8132 C   0  0  0  0  0  0  0  0  0  0  0  0
   -7.9529   -2.9015    6.3482 C   0  0  0  0  0  0  0  0  0  0  0  0
   -9.1753   -2.3114    6.6766 C   0  0  0  0  0  0  0  0  0  0  0  0
   -9.2352   -1.1862    7.5162 C   0  0  0  0  0  0  0  0  0  0  0  0
  -10.5846   -0.5505    7.7971 C   0  0  0  0  0  0  0  0  0  0  0  0
  -10.7004    0.2749    9.1096 C   0  0  0  0  0  0  0  0  0  0  0  0
  -12.0441    0.9081    9.2574 N   0  0  0  0  0  0  0  0  0  0  0  0
  -12.5868    1.1882   10.5204 C   0  0  0  0  0  0  0  0  0  0  0  0
  -13.7535    0.6665   10.9654 C   0  0  0  0  0  0  0  0  0  0  0  0
  -14.2551    0.9912   12.2933 C   0  0  0  0  0  0  0  0  0  0  0  0
  -13.5736    1.8005   13.1242 C   0  0  0  0  0  0  0  0  0  0  0  0
  -12.3493    2.3655   12.6892 C   0  0  0  0  0  0  0  0  0  0  0  0
  -11.4661    3.1381   13.2849 N   0  0  0  0  0  0  0  0  0  0  0  0
  -10.4875    3.4461   12.3757 N   0  0  0  0  0  0  0  0  0  0  0  0
  -10.7865    2.8239   11.2578 C   0  0  0  0  0  0  0  0  0  0  0  0
  -11.9187    2.0704   11.4034 N   0  0  0  0  0  0  0  0  0  0  0  0
  -12.8963    0.7669    8.0616 C   0  0  0  0  0  0  0  0  0  0  0  0
  -12.0699    1.0572    6.7984 C   0  0  0  0  0  0  0  0  0  0  0  0
  -10.8733    0.2779    6.6515 O   0  0  0  0  0  0  0  0  0  0  0  0
   -8.0305   -0.6707    8.0077 C   0  0  0  0  0  0  0  0  0  0  0  0
   -6.6233    1.4404    5.9256 H   0  0  0  0  0  0  0  0  0  0  0  0
   -6.7029    1.5879    7.7178 H   0  0  0  0  0  0  0  0  0  0  0  0
   -8.7483    2.8795    6.5279 H   0  0  0  0  0  0  0  0  0  0  0  0
  -10.4478    3.9201    8.0126 H   0  0  0  0  0  0  0  0  0  0  0  0
   -9.5685    9.8663   10.8895 H   0  0  0  0  0  0  0  0  0  0  0  0
  -11.5609   10.9830    9.9590 H   0  0  0  0  0  0  0  0  0  0  0  0
  -13.7834    9.9027   10.0379 H   0  0  0  0  0  0  0  0  0  0  0  0
  -11.7712    5.6786   12.6815 H   0  0  0  0  0  0  0  0  0  0  0  0
   -6.7846    6.6600   10.7214 H   0  0  0  0  0  0  0  0  0  0  0  0
   -5.6091    5.1299    8.4854 H   0  0  0  0  0  0  0  0  0  0  0  0
   -5.8186   -2.8224    6.5570 H   0  0  0  0  0  0  0  0  0  0  0  0
   -7.9327   -3.7912    5.7242 H   0  0  0  0  0  0  0  0  0  0  0  0
  -10.0936   -2.7412    6.2781 H   0  0  0  0  0  0  0  0  0  0  0  0
  -11.3322   -1.3536    7.8224 H   0  0  0  0  0  0  0  0  0  0  0  0
   -9.9672    1.0853    9.0917 H   0  0  0  0  0  0  0  0  0  0  0  0
  -10.4875   -0.3688    9.9712 H   0  0  0  0  0  0  0  0  0  0  0  0
  -14.3387   -0.0206   10.3630 H   0  0  0  0  0  0  0  0  0  0  0  0
  -15.2052    0.5607   12.5932 H   0  0  0  0  0  0  0  0  0  0  0  0
  -13.9351    2.0596   14.1122 H   0  0  0  0  0  0  0  0  0  0  0  0
  -10.2237    2.8669   10.3458 H   0  0  0  0  0  0  0  0  0  0  0  0
  -13.7351    1.4716    8.1037 H   0  0  0  0  0  0  0  0  0  0  0  0
  -13.3109   -0.2476    8.0246 H   0  0  0  0  0  0  0  0  0  0  0  0
  -12.6823    0.8920    5.9061 H   0  0  0  0  0  0  0  0  0  0  0  0
  -11.7641    2.1091    6.7893 H   0  0  0  0  0  0  0  0  0  0  0  0
   -8.0316    0.1698    8.6949 H   0  0  0  0  0  0  0  0  0  0  0  0
  1  2  1  0
  2  3  1  0
  2  4  1  0
  4  5  1  0
  5  6  1  0
  6  7  1  0
  7  8  2  0
  8  9  1  0
  9 10  2  0
 10 11  1  0
 11 12  2  0
 12 13  1  0
 13 14  1  0
 14 15  2  0
 15 16  1  0
 16 17  2  0
 17 18  1  0
 18 19  2  0
 19 20  1  0
 20 21  2  0
 21 22  1  0
 12 23  1  0
 23 24  1  0
 24 25  2  0
  2 26  1  0
 26 27  1  0
 27 28  2  0
 28 29  1  0
 29 30  2  0
 30 31  1  0
 31 32  1  0
 32 33  1  0
 33 34  1  0
 34 35  1  0
 35 36  2  0
 36 37  1  0
 37 38  2  0
 38 39  1  0
 39 40  2  0
 40 41  1  0
 41 42  2  0
 42 43  1  0
 34 44  1  0
 44 45  1  0
 45 46  1  0
 31 47  2  0
 25  7  1  0
 47 27  1  0
 24 10  1  0
 46 32  1  0
 22 14  1  0
 43 35  1  0
 22 18  1  0
 43 39  1  0
  5 48  1  0
  5 49  1  0
  8 50  1  0
  9 51  1  0
 15 52  1  0
 16 53  1  0
 17 54  1  0
 21 55  1  0
 23 56  1  0
 25 57  1  0
 28 58  1  0
 29 59  1  0
 30 60  1  0
 32 61  1  0
 33 62  1  0
 33 63  1  0
 36 64  1  0
 37 65  1  0
 38 66  1  0
 42 67  1  0
 44 68  1  0
 44 69  1  0
 45 70  1  0
 45 71  1  0
 47 72  1  0
M  END
>  <Energy>  (211) 
152.83630248789896

>  <compound_id>  (211) 
2740

>  <target_id>  (211) 
1

>  <reference_id>  (211) 
139

>  <inspiration_ids>  (211) 
[139, 100]

>  <energy_score>  (211) 
-78.50282220780048

>  <distance_score>  (211) 
0.8555170416404854

>  <path>  (211) 
/opt/xchem-fragalysis-2/maxwin/BulkDock/SCRATCH/505735/C2740-P139/C2740-P139.minimised.mol

>  <scratch_subdir>  (211) 
/opt/xchem-fragalysis-2/maxwin/BulkDock/SCRATCH/505735/C2740-P139

>  <fragmenstein_runtime>  (211) 
211.82425475120544

>  <fragmenstein_outcome>  (211) 
acceptable

>  <fragmenstein_mode>  (211) 
expansion

>  <fragmenstein_error>  (211) 


$$$$
C2740-P100
     RDKit          3D

 72 79  0  0  0  0  0  0  0  0999 V2000
   -6.0063   -0.1209    6.0674 F   0  0  0  0  0  0  0  0  0  0  0  0
   -5.6654    0.1146    7.3523 C   0  0  0  0  0  0  0  0  0  0  0  0
   -4.4551   -0.4553    7.5632 F   0  0  0  0  0  0  0  0  0  0  0  0
   -5.4919    1.5178    7.4803 O   0  0  0  0  0  0  0  0  0  0  0  0
   -6.7008    2.1920    7.1569 C   0  0  0  0  0  0  0  0  0  0  0  0
   -6.4912    3.6127    7.2328 O   0  0  0  0  0  0  0  0  0  0  0  0
   -7.6275    4.2566    7.6630 C   0  0  0  0  0  0  0  0  0  0  0  0
   -8.8535    4.1065    7.0080 C   0  0  0  0  0  0  0  0  0  0  0  0
  -10.0156    4.6751    7.5439 C   0  0  0  0  0  0  0  0  0  0  0  0
   -9.9261    5.3779    8.7539 C   0  0  0  0  0  0  0  0  0  0  0  0
  -10.9203    5.9499    9.5008 N   0  0  0  0  0  0  0  0  0  0  0  0
  -10.3156    6.4228   10.5653 C   0  0  0  0  0  0  0  0  0  0  0  0
  -11.0412    7.2435   11.9088 S   0  0  0  0  0  0  0  0  0  0  0  0
  -12.6194    7.4224   11.2032 C   0  0  0  0  0  0  0  0  0  0  0  0
  -12.9266    8.5157   10.4721 C   0  0  0  0  0  0  0  0  0  0  0  0
  -14.2124    8.5925    9.7945 C   0  0  0  0  0  0  0  0  0  0  0  0
  -15.0958    7.5790    9.8526 C   0  0  0  0  0  0  0  0  0  0  0  0
  -14.7899    6.4264   10.6253 C   0  0  0  0  0  0  0  0  0  0  0  0
  -15.4569    5.3152   10.8565 N   0  0  0  0  0  0  0  0  0  0  0  0
  -14.7181    4.5612   11.7380 N   0  0  0  0  0  0  0  0  0  0  0  0
  -13.6141    5.2264   12.0076 C   0  0  0  0  0  0  0  0  0  0  0  0
  -13.5767    6.4010   11.3028 N   0  0  0  0  0  0  0  0  0  0  0  0
   -8.9688    6.2030   10.5315 N   0  0  0  0  0  0  0  0  0  0  0  0
   -8.6854    5.5431    9.3598 C   0  0  0  0  0  0  0  0  0  0  0  0
   -7.5007    5.0468    8.8118 C   0  0  0  0  0  0  0  0  0  0  0  0
   -6.5526   -0.4917    8.2809 O   0  0  0  0  0  0  0  0  0  0  0  0
   -7.6044   -1.1238    7.6874 C   0  0  0  0  0  0  0  0  0  0  0  0
   -7.4792   -2.2595    6.8964 C   0  0  0  0  0  0  0  0  0  0  0  0
   -8.6203   -2.8171    6.3195 C   0  0  0  0  0  0  0  0  0  0  0  0
   -9.8784   -2.2520    6.5570 C   0  0  0  0  0  0  0  0  0  0  0  0
  -10.0186   -1.1413    7.4031 C   0  0  0  0  0  0  0  0  0  0  0  0
  -11.4009   -0.6095    7.7431 C   0  0  0  0  0  0  0  0  0  0  0  0
  -11.3708    0.4786    8.8433 C   0  0  0  0  0  0  0  0  0  0  0  0
  -12.7214    0.9526    9.2242 N   0  0  0  0  0  0  0  0  0  0  0  0
  -13.0173    1.1634   10.5786 C   0  0  0  0  0  0  0  0  0  0  0  0
  -14.0795    0.6234   11.2173 C   0  0  0  0  0  0  0  0  0  0  0  0
  -14.2435    0.7984   12.6528 C   0  0  0  0  0  0  0  0  0  0  0  0
  -13.3270    1.4479   13.3931 C   0  0  0  0  0  0  0  0  0  0  0  0
  -12.2127    2.0470   12.7520 C   0  0  0  0  0  0  0  0  0  0  0  0
  -11.1875    2.7451   13.2000 N   0  0  0  0  0  0  0  0  0  0  0  0
  -10.4822    3.2096   12.1187 N   0  0  0  0  0  0  0  0  0  0  0  0
  -11.0633    2.7303   11.0426 C   0  0  0  0  0  0  0  0  0  0  0  0
  -12.1304    1.9343   11.3739 N   0  0  0  0  0  0  0  0  0  0  0  0
  -13.7385    0.6724    8.1966 C   0  0  0  0  0  0  0  0  0  0  0  0
  -13.1066    0.7987    6.7960 C   0  0  0  0  0  0  0  0  0  0  0  0
  -12.0257   -0.1154    6.5417 O   0  0  0  0  0  0  0  0  0  0  0  0
   -8.8575   -0.5967    7.9670 C   0  0  0  0  0  0  0  0  0  0  0  0
   -7.0065    1.9521    6.1321 H   0  0  0  0  0  0  0  0  0  0  0  0
   -7.4723    1.8828    7.8688 H   0  0  0  0  0  0  0  0  0  0  0  0
   -8.9252    3.5376    6.0850 H   0  0  0  0  0  0  0  0  0  0  0  0
  -10.9774    4.5506    7.0585 H   0  0  0  0  0  0  0  0  0  0  0  0
  -12.2267    9.3321   10.3258 H   0  0  0  0  0  0  0  0  0  0  0  0
  -14.4278    9.4856    9.2160 H   0  0  0  0  0  0  0  0  0  0  0  0
  -16.0483    7.6217    9.3376 H   0  0  0  0  0  0  0  0  0  0  0  0
  -12.8340    4.9200   12.6902 H   0  0  0  0  0  0  0  0  0  0  0  0
   -8.3195    6.4379   11.2673 H   0  0  0  0  0  0  0  0  0  0  0  0
   -6.5429    5.1762    9.3028 H   0  0  0  0  0  0  0  0  0  0  0  0
   -6.5110   -2.7164    6.7215 H   0  0  0  0  0  0  0  0  0  0  0  0
   -8.5406   -3.7010    5.6899 H   0  0  0  0  0  0  0  0  0  0  0  0
  -10.7588   -2.7073    6.1029 H   0  0  0  0  0  0  0  0  0  0  0  0
  -12.0067   -1.4523    8.0987 H   0  0  0  0  0  0  0  0  0  0  0  0
  -10.8207    1.3507    8.4704 H   0  0  0  0  0  0  0  0  0  0  0  0
  -10.8579    0.0829    9.7293 H   0  0  0  0  0  0  0  0  0  0  0  0
  -14.8052    0.0029   10.7042 H   0  0  0  0  0  0  0  0  0  0  0  0
  -15.1246    0.3680   13.1176 H   0  0  0  0  0  0  0  0  0  0  0  0
  -13.4372    1.5727   14.4633 H   0  0  0  0  0  0  0  0  0  0  0  0
  -10.7762    2.9349   10.0261 H   0  0  0  0  0  0  0  0  0  0  0  0
  -14.5657    1.3854    8.2856 H   0  0  0  0  0  0  0  0  0  0  0  0
  -14.1341   -0.3405    8.3365 H   0  0  0  0  0  0  0  0  0  0  0  0
  -13.8658    0.6255    6.0267 H   0  0  0  0  0  0  0  0  0  0  0  0
  -12.7169    1.8128    6.6480 H   0  0  0  0  0  0  0  0  0  0  0  0
   -8.8954    0.2434    8.6530 H   0  0  0  0  0  0  0  0  0  0  0  0
  1  2  1  0
  2  3  1  0
  2  4  1  0
  4  5  1  0
  5  6  1  0
  6  7  1  0
  7  8  2  0
  8  9  1  0
  9 10  2  0
 10 11  1  0
 11 12  2  0
 12 13  1  0
 13 14  1  0
 14 15  2  0
 15 16  1  0
 16 17  2  0
 17 18  1  0
 18 19  2  0
 19 20  1  0
 20 21  2  0
 21 22  1  0
 12 23  1  0
 23 24  1  0
 24 25  2  0
  2 26  1  0
 26 27  1  0
 27 28  2  0
 28 29  1  0
 29 30  2  0
 30 31  1  0
 31 32  1  0
 32 33  1  0
 33 34  1  0
 34 35  1  0
 35 36  2  0
 36 37  1  0
 37 38  2  0
 38 39  1  0
 39 40  2  0
 40 41  1  0
 41 42  2  0
 42 43  1  0
 34 44  1  0
 44 45  1  0
 45 46  1  0
 31 47  2  0
 25  7  1  0
 47 27  1  0
 24 10  1  0
 46 32  1  0
 22 14  1  0
 43 35  1  0
 22 18  1  0
 43 39  1  0
  5 48  1  0
  5 49  1  0
  8 50  1  0
  9 51  1  0
 15 52  1  0
 16 53  1  0
 17 54  1  0
 21 55  1  0
 23 56  1  0
 25 57  1  0
 28 58  1  0
 29 59  1  0
 30 60  1  0
 32 61  1  0
 33 62  1  0
 33 63  1  0
 36 64  1  0
 37 65  1  0
 38 66  1  0
 42 67  1  0
 44 68  1  0
 44 69  1  0
 45 70  1  0
 45 71  1  0
 47 72  1  0
M  END
>  <Energy>  (212) 
145.31776844489866

>  <compound_id>  (212) 
2740

>  <target_id>  (212) 
1

>  <reference_id>  (212) 
100

>  <inspiration_ids>  (212) 
[139, 100]

>  <energy_score>  (212) 
-72.74701465949454

>  <distance_score>  (212) 
1.3491816760606645

>  <path>  (212) 
/opt/xchem-fragalysis-2/maxwin/BulkDock/SCRATCH/505735/C2740-P100/C2740-P100.minimised.mol

>  <scratch_subdir>  (212) 
/opt/xchem-fragalysis-2/maxwin/BulkDock/SCRATCH/505735/C2740-P100

>  <fragmenstein_runtime>  (212) 
215.53085708618164

>  <fragmenstein_outcome>  (212) 
too moved

>  <fragmenstein_mode>  (212) 
expansion

>  <fragmenstein_error>  (212) 


$$$$
C3992-P139
     RDKit          3D

 65 68  0  0  0  0  0  0  0  0999 V2000
   -8.9804    1.0751    3.9987 C   0  0  0  0  0  0  0  0  0  0  0  0
   -8.5964    1.7871    5.2797 C   0  0  0  0  0  0  0  0  0  0  0  0
   -9.9236    1.9008    6.4574 S   0  0  0  0  0  0  0  0  0  0  0  0
   -9.3691    2.2250    7.7536 O   0  0  0  0  0  0  0  0  0  0  0  0
  -11.1047    2.6638    5.8020 N   0  0  0  0  0  0  0  0  0  0  0  0
  -12.4813    2.6423    6.3872 N   0  0  0  0  0  0  0  0  0  0  0  0
  -13.5095    3.3287    5.5911 C   0  0  0  0  0  0  0  0  0  0  0  0
  -13.5734    4.8101    5.9532 C   0  0  0  0  0  0  0  0  0  0  0  0
  -14.6292    5.5097    5.1404 C   0  0  0  0  0  0  0  0  0  0  0  0
  -14.6141    6.7220    4.9456 O   0  0  0  0  0  0  0  0  0  0  0  0
  -15.6675    4.7431    4.6790 N   0  0  0  0  0  0  0  0  0  0  0  0
  -15.8811    3.4008    4.8552 C   0  0  0  0  0  0  0  0  0  0  0  0
  -16.8907    2.8664    4.4018 O   0  0  0  0  0  0  0  0  0  0  0  0
  -14.8857    2.6486    5.7114 C   0  0  0  0  0  0  0  0  0  0  0  0
  -15.4651    2.5221    7.1304 C   0  0  0  0  0  0  0  0  0  0  0  0
  -15.1173    1.1868    7.7862 C   0  0  0  0  0  0  0  0  0  0  0  0
  -14.4821    0.3569    7.2708 O   0  0  0  0  0  0  0  0  0  0  0  0
  -15.7131    1.2526    9.2138 N   0  0  0  0  0  0  0  0  0  0  0  0
  -15.5688    0.3534   10.3296 C   0  0  0  0  0  0  0  0  0  0  0  0
  -14.4512    0.8504   11.2061 C   0  0  0  0  0  0  0  0  0  0  0  0
  -14.7120    1.4287   12.4554 C   0  0  0  0  0  0  0  0  0  0  0  0
  -13.6855    2.0446   13.1698 C   0  0  0  0  0  0  0  0  0  0  0  0
  -12.4000    2.0942   12.6372 C   0  0  0  0  0  0  0  0  0  0  0  0
  -12.1203    1.4857   11.4150 C   0  0  0  0  0  0  0  0  0  0  0  0
  -13.1370    0.8489   10.7115 C   0  0  0  0  0  0  0  0  0  0  0  0
  -10.6191    0.3711    6.6484 N   0  0  0  0  0  0  0  0  0  0  0  0
  -10.2502   -0.5156    7.7386 C   0  0  0  0  0  0  0  0  0  0  0  0
   -8.9023   -1.1491    7.4908 C   0  0  0  0  0  0  0  0  0  0  0  0
   -8.8045   -2.3220    6.7064 C   0  0  0  0  0  0  0  0  0  0  0  0
   -7.5588   -2.8591    6.3685 C   0  0  0  0  0  0  0  0  0  0  0  0
   -6.4354   -2.1902    6.8038 C   0  0  0  0  0  0  0  0  0  0  0  0
   -6.5209   -1.0626    7.5858 C   0  0  0  0  0  0  0  0  0  0  0  0
   -7.7331   -0.5319    7.9636 C   0  0  0  0  0  0  0  0  0  0  0  0
   -5.3010   -0.5494    7.9003 O   0  0  0  0  0  0  0  0  0  0  0  0
   -4.4408   -1.4421    7.1686 C   0  0  0  0  0  0  0  0  0  0  0  0
   -5.1458   -2.5266    6.5285 O   0  0  0  0  0  0  0  0  0  0  0  0
   -9.2814    0.0409    4.1916 H   0  0  0  0  0  0  0  0  0  0  0  0
   -9.8108    1.5787    3.4944 H   0  0  0  0  0  0  0  0  0  0  0  0
   -8.1300    1.0541    3.3100 H   0  0  0  0  0  0  0  0  0  0  0  0
   -7.7621    1.2736    5.7629 H   0  0  0  0  0  0  0  0  0  0  0  0
   -8.2740    2.8118    5.0676 H   0  0  0  0  0  0  0  0  0  0  0  0
  -12.4564    3.0007    7.3486 H   0  0  0  0  0  0  0  0  0  0  0  0
  -13.2254    3.2564    4.5299 H   0  0  0  0  0  0  0  0  0  0  0  0
  -12.6118    5.2901    5.7353 H   0  0  0  0  0  0  0  0  0  0  0  0
  -13.7964    4.9714    7.0132 H   0  0  0  0  0  0  0  0  0  0  0  0
  -16.3652    5.2337    4.1350 H   0  0  0  0  0  0  0  0  0  0  0  0
  -14.8015    1.6564    5.2463 H   0  0  0  0  0  0  0  0  0  0  0  0
  -15.1109    3.3308    7.7778 H   0  0  0  0  0  0  0  0  0  0  0  0
  -16.5610    2.5806    7.1024 H   0  0  0  0  0  0  0  0  0  0  0  0
  -16.2821    2.0846    9.3049 H   0  0  0  0  0  0  0  0  0  0  0  0
  -16.5223    0.3123   10.8644 H   0  0  0  0  0  0  0  0  0  0  0  0
  -15.3324   -0.6407    9.9509 H   0  0  0  0  0  0  0  0  0  0  0  0
  -15.7217    1.4445   12.8575 H   0  0  0  0  0  0  0  0  0  0  0  0
  -13.8875    2.5262   14.1235 H   0  0  0  0  0  0  0  0  0  0  0  0
  -11.6213    2.6242   13.1792 H   0  0  0  0  0  0  0  0  0  0  0  0
  -11.1160    1.5277   10.9989 H   0  0  0  0  0  0  0  0  0  0  0  0
  -12.9152    0.3970    9.7460 H   0  0  0  0  0  0  0  0  0  0  0  0
  -11.6157    0.5632    6.6946 H   0  0  0  0  0  0  0  0  0  0  0  0
  -11.0019   -1.3103    7.8062 H   0  0  0  0  0  0  0  0  0  0  0  0
  -10.2728   -0.0061    8.7089 H   0  0  0  0  0  0  0  0  0  0  0  0
   -9.7101   -2.8087    6.3467 H   0  0  0  0  0  0  0  0  0  0  0  0
   -7.4801   -3.7580    5.7676 H   0  0  0  0  0  0  0  0  0  0  0  0
   -7.7745    0.3636    8.5754 H   0  0  0  0  0  0  0  0  0  0  0  0
   -3.6961   -1.8593    7.8553 H   0  0  0  0  0  0  0  0  0  0  0  0
   -3.9174   -0.8673    6.3965 H   0  0  0  0  0  0  0  0  0  0  0  0
  1  2  1  0
  2  3  1  0
  3  4  2  0
  3  5  2  0
  5  6  1  0
  6  7  1  0
  7  8  1  0
  8  9  1  0
  9 10  2  0
  9 11  1  0
 11 12  1  0
 12 13  2  0
 12 14  1  0
 14 15  1  0
 15 16  1  0
 16 17  2  0
 16 18  1  0
 18 19  1  0
 19 20  1  0
 20 21  2  0
 21 22  1  0
 22 23  2  0
 23 24  1  0
 24 25  2  0
  3 26  1  0
 26 27  1  0
 27 28  1  0
 28 29  2  0
 29 30  1  0
 30 31  2  0
 31 32  1  0
 32 33  2  0
 32 34  1  0
 34 35  1  0
 35 36  1  0
 14  7  1  0
 25 20  1  0
 33 28  1  0
 36 31  1  0
  1 37  1  0
  1 38  1  0
  1 39  1  0
  2 40  1  0
  2 41  1  0
  6 42  1  0
  7 43  1  0
  8 44  1  0
  8 45  1  0
 11 46  1  0
 14 47  1  0
 15 48  1  0
 15 49  1  0
 18 50  1  0
 19 51  1  0
 19 52  1  0
 21 53  1  0
 22 54  1  0
 23 55  1  0
 24 56  1  0
 25 57  1  0
 26 58  1  0
 27 59  1  0
 27 60  1  0
 29 61  1  0
 30 62  1  0
 33 63  1  0
 35 64  1  0
 35 65  1  0
M  END
>  <Energy>  (213) 
-96.763352345421026

>  <compound_id>  (213) 
3992

>  <target_id>  (213) 
1

>  <reference_id>  (213) 
139

>  <inspiration_ids>  (213) 
[139, 126]

>  <energy_score>  (213) 
-107.7641280417852

>  <distance_score>  (213) 
1.1698307958309764

>  <path>  (213) 
/opt/xchem-fragalysis-2/maxwin/BulkDock/SCRATCH/505735/C3992-P139/C3992-P139.minimised.mol

>  <scratch_subdir>  (213) 
/opt/xchem-fragalysis-2/maxwin/BulkDock/SCRATCH/505735/C3992-P139

>  <fragmenstein_runtime>  (213) 
21.083585500717163

>  <fragmenstein_outcome>  (213) 
too moved

>  <fragmenstein_mode>  (213) 
expansion

>  <fragmenstein_error>  (213) 


$$$$
C3992-P126
     RDKit          3D

 65 68  0  0  0  0  0  0  0  0999 V2000
   -9.8170    0.4643    3.6640 C   0  0  0  0  0  0  0  0  0  0  0  0
   -9.4627    1.4683    4.7416 C   0  0  0  0  0  0  0  0  0  0  0  0
  -10.7695    1.7478    5.9127 S   0  0  0  0  0  0  0  0  0  0  0  0
  -10.2358    2.4368    7.0680 O   0  0  0  0  0  0  0  0  0  0  0  0
  -12.0535    2.1950    5.1661 N   0  0  0  0  0  0  0  0  0  0  0  0
  -13.3067    2.5074    5.9130 N   0  0  0  0  0  0  0  0  0  0  0  0
  -14.5252    2.5666    5.0896 C   0  0  0  0  0  0  0  0  0  0  0  0
  -14.7308    3.9485    4.4729 C   0  0  0  0  0  0  0  0  0  0  0  0
  -15.9988    3.9665    3.6535 C   0  0  0  0  0  0  0  0  0  0  0  0
  -16.1306    4.6779    2.6610 O   0  0  0  0  0  0  0  0  0  0  0  0
  -17.0298    3.1710    4.0887 N   0  0  0  0  0  0  0  0  0  0  0  0
  -16.9177    2.1029    4.9441 C   0  0  0  0  0  0  0  0  0  0  0  0
  -17.7187    1.1737    4.9141 O   0  0  0  0  0  0  0  0  0  0  0  0
  -15.7516    2.1387    5.9101 C   0  0  0  0  0  0  0  0  0  0  0  0
  -16.0946    3.0651    7.0851 C   0  0  0  0  0  0  0  0  0  0  0  0
  -16.8138    2.2967    8.1913 C   0  0  0  0  0  0  0  0  0  0  0  0
  -17.9912    2.4450    8.3342 O   0  0  0  0  0  0  0  0  0  0  0  0
  -15.8851    1.4662    8.8916 N   0  0  0  0  0  0  0  0  0  0  0  0
  -16.0561    0.6221   10.0449 C   0  0  0  0  0  0  0  0  0  0  0  0
  -14.8827    0.7837   10.9713 C   0  0  0  0  0  0  0  0  0  0  0  0
  -14.9656    1.6202   12.0926 C   0  0  0  0  0  0  0  0  0  0  0  0
  -13.8509    1.8200   12.9072 C   0  0  0  0  0  0  0  0  0  0  0  0
  -12.6447    1.1917   12.6063 C   0  0  0  0  0  0  0  0  0  0  0  0
  -12.5494    0.3625   11.4907 C   0  0  0  0  0  0  0  0  0  0  0  0
  -13.6624    0.1598   10.6763 C   0  0  0  0  0  0  0  0  0  0  0  0
  -11.3041    0.2582    6.4996 N   0  0  0  0  0  0  0  0  0  0  0  0
  -10.8058   -0.3072    7.7369 C   0  0  0  0  0  0  0  0  0  0  0  0
   -9.3932   -0.8116    7.5972 C   0  0  0  0  0  0  0  0  0  0  0  0
   -9.1451   -2.0658    6.9895 C   0  0  0  0  0  0  0  0  0  0  0  0
   -7.8432   -2.5476    6.8428 C   0  0  0  0  0  0  0  0  0  0  0  0
   -6.8186   -1.7503    7.3010 C   0  0  0  0  0  0  0  0  0  0  0  0
   -7.0471   -0.5190    7.8686 C   0  0  0  0  0  0  0  0  0  0  0  0
   -8.3182   -0.0241    8.0377 C   0  0  0  0  0  0  0  0  0  0  0  0
   -5.8986    0.1123    8.2284 O   0  0  0  0  0  0  0  0  0  0  0  0
   -4.9351   -0.9128    7.9372 C   0  0  0  0  0  0  0  0  0  0  0  0
   -5.4978   -2.0693    7.2883 O   0  0  0  0  0  0  0  0  0  0  0  0
  -10.0445   -0.5170    4.0912 H   0  0  0  0  0  0  0  0  0  0  0  0
  -10.6875    0.7890    3.0859 H   0  0  0  0  0  0  0  0  0  0  0  0
   -8.9785    0.3429    2.9711 H   0  0  0  0  0  0  0  0  0  0  0  0
   -8.5844    1.1326    5.2994 H   0  0  0  0  0  0  0  0  0  0  0  0
   -9.2231    2.4398    4.2975 H   0  0  0  0  0  0  0  0  0  0  0  0
  -13.1722    3.3805    6.4378 H   0  0  0  0  0  0  0  0  0  0  0  0
  -14.4212    1.8377    4.2707 H   0  0  0  0  0  0  0  0  0  0  0  0
  -13.8937    4.1908    3.8074 H   0  0  0  0  0  0  0  0  0  0  0  0
  -14.7996    4.7374    5.2306 H   0  0  0  0  0  0  0  0  0  0  0  0
  -17.8229    3.1340    3.4595 H   0  0  0  0  0  0  0  0  0  0  0  0
  -15.5903    1.1074    6.2528 H   0  0  0  0  0  0  0  0  0  0  0  0
  -15.2017    3.5220    7.5274 H   0  0  0  0  0  0  0  0  0  0  0  0
  -16.7419    3.8969    6.7803 H   0  0  0  0  0  0  0  0  0  0  0  0
  -14.9501    1.6590    8.5541 H   0  0  0  0  0  0  0  0  0  0  0  0
  -17.0022    0.8715   10.5371 H   0  0  0  0  0  0  0  0  0  0  0  0
  -16.1292   -0.4134    9.6961 H   0  0  0  0  0  0  0  0  0  0  0  0
  -15.8942    2.1364   12.3261 H   0  0  0  0  0  0  0  0  0  0  0  0
  -13.9135    2.4823   13.7673 H   0  0  0  0  0  0  0  0  0  0  0  0
  -11.7795    1.3605   13.2410 H   0  0  0  0  0  0  0  0  0  0  0  0
  -11.6086   -0.1245   11.2490 H   0  0  0  0  0  0  0  0  0  0  0  0
  -13.5746   -0.4865    9.8049 H   0  0  0  0  0  0  0  0  0  0  0  0
  -12.3058    0.3845    6.5601 H   0  0  0  0  0  0  0  0  0  0  0  0
  -11.4465   -1.1513    8.0190 H   0  0  0  0  0  0  0  0  0  0  0  0
  -10.8866    0.4068    8.5653 H   0  0  0  0  0  0  0  0  0  0  0  0
   -9.9799   -2.6741    6.6418 H   0  0  0  0  0  0  0  0  0  0  0  0
   -7.6503   -3.5176    6.3980 H   0  0  0  0  0  0  0  0  0  0  0  0
   -8.4755    0.9473    8.4966 H   0  0  0  0  0  0  0  0  0  0  0  0
   -4.4444   -1.2037    8.8676 H   0  0  0  0  0  0  0  0  0  0  0  0
   -4.1659   -0.5054    7.2880 H   0  0  0  0  0  0  0  0  0  0  0  0
  1  2  1  0
  2  3  1  0
  3  4  2  0
  3  5  2  0
  5  6  1  0
  6  7  1  0
  7  8  1  0
  8  9  1  0
  9 10  2  0
  9 11  1  0
 11 12  1  0
 12 13  2  0
 12 14  1  0
 14 15  1  0
 15 16  1  0
 16 17  2  0
 16 18  1  0
 18 19  1  0
 19 20  1  0
 20 21  2  0
 21 22  1  0
 22 23  2  0
 23 24  1  0
 24 25  2  0
  3 26  1  0
 26 27  1  0
 27 28  1  0
 28 29  2  0
 29 30  1  0
 30 31  2  0
 31 32  1  0
 32 33  2  0
 32 34  1  0
 34 35  1  0
 35 36  1  0
 14  7  1  0
 25 20  1  0
 33 28  1  0
 36 31  1  0
  1 37  1  0
  1 38  1  0
  1 39  1  0
  2 40  1  0
  2 41  1  0
  6 42  1  0
  7 43  1  0
  8 44  1  0
  8 45  1  0
 11 46  1  0
 14 47  1  0
 15 48  1  0
 15 49  1  0
 18 50  1  0
 19 51  1  0
 19 52  1  0
 21 53  1  0
 22 54  1  0
 23 55  1  0
 24 56  1  0
 25 57  1  0
 26 58  1  0
 27 59  1  0
 27 60  1  0
 29 61  1  0
 30 62  1  0
 33 63  1  0
 35 64  1  0
 35 65  1  0
M  END
>  <Energy>  (214) 
-105.52461179898539

>  <compound_id>  (214) 
3992

>  <target_id>  (214) 
1

>  <reference_id>  (214) 
126

>  <inspiration_ids>  (214) 
[139, 126]

>  <energy_score>  (214) 
-92.36986946348935

>  <distance_score>  (214) 
1.460830832758705

>  <path>  (214) 
/opt/xchem-fragalysis-2/maxwin/BulkDock/SCRATCH/505735/C3992-P126/C3992-P126.minimised.mol

>  <scratch_subdir>  (214) 
/opt/xchem-fragalysis-2/maxwin/BulkDock/SCRATCH/505735/C3992-P126

>  <fragmenstein_runtime>  (214) 
25.26546001434326

>  <fragmenstein_outcome>  (214) 
too moved

>  <fragmenstein_mode>  (214) 
expansion

>  <fragmenstein_error>  (214) 


$$$$
C3997-P140
     RDKit          3D

 66 68  0  0  0  0  0  0  0  0999 V2000
   -2.5743   -2.1563   32.1767 C   0  0  0  0  0  0  0  0  0  0  0  0
   -1.6246   -2.4106   31.1447 O   0  0  0  0  0  0  0  0  0  0  0  0
   -1.1620   -3.6871   30.9720 C   0  0  0  0  0  0  0  0  0  0  0  0
   -1.4441   -4.6293   31.7026 O   0  0  0  0  0  0  0  0  0  0  0  0
   -0.3051   -3.8066   29.6953 C   0  0  0  0  0  0  0  0  0  0  0  0
   -0.4808   -2.5973   28.9623 N   0  0  0  0  0  0  0  0  0  0  0  0
    0.4539   -1.3595   28.8066 C   0  0  0  0  0  0  0  0  0  0  0  0
    1.5761   -1.1694   29.2037 N   0  0  0  0  0  0  0  0  0  0  0  0
    2.5173   -2.1319   29.7328 C   0  0  0  0  0  0  0  0  0  0  0  0
    2.6345   -2.0692   31.2619 C   0  0  0  0  0  0  0  0  0  0  0  0
    1.4267   -2.5531   31.9572 N   0  0  0  0  0  0  0  0  0  0  0  0
    1.5055   -2.3141   33.4148 C   0  0  0  0  0  0  0  0  0  0  0  0
    2.6252   -3.0489   34.1396 C   0  0  0  0  0  0  0  0  0  0  0  0
    2.4275   -4.5750   34.1721 C   0  0  0  0  0  0  0  0  0  0  0  0
    3.5200   -5.1282   35.0903 C   0  0  0  0  0  0  0  0  0  0  0  0
    3.4878   -6.6263   35.3612 C   0  0  0  0  0  0  0  0  0  0  0  0
    3.0005   -7.4306   34.6682 O   0  0  0  0  0  0  0  0  0  0  0  0
    4.1980   -6.7781   36.7349 N   0  0  0  0  0  0  0  0  0  0  0  0
    4.3666   -7.9255   37.5707 C   0  0  0  0  0  0  0  0  0  0  0  0
    3.4158   -7.8323   38.7339 C   0  0  0  0  0  0  0  0  0  0  0  0
    3.8913   -7.9595   40.0443 C   0  0  0  0  0  0  0  0  0  0  0  0
    3.0089   -7.9155   41.1244 C   0  0  0  0  0  0  0  0  0  0  0  0
    1.6436   -7.7430   40.9077 C   0  0  0  0  0  0  0  0  0  0  0  0
    1.1581   -7.6037   39.6115 C   0  0  0  0  0  0  0  0  0  0  0  0
    2.0375   -7.6466   38.5307 C   0  0  0  0  0  0  0  0  0  0  0  0
    1.0193   -4.9007   34.6769 C   0  0  0  0  0  0  0  0  0  0  0  0
    0.7682   -5.7664   35.5091 O   0  0  0  0  0  0  0  0  0  0  0  0
    0.0134   -4.1212   34.1752 N   0  0  0  0  0  0  0  0  0  0  0  0
    0.1957   -2.7635   34.0678 C   0  0  0  0  0  0  0  0  0  0  0  0
   -0.6288   -1.9585   34.4965 O   0  0  0  0  0  0  0  0  0  0  0  0
   -0.2988   -0.3076   28.1371 C   0  0  0  0  0  0  0  0  0  0  0  0
    0.1022    1.0047   27.8285 C   0  0  0  0  0  0  0  0  0  0  0  0
   -1.0167    1.5882   27.2971 C   0  0  0  0  0  0  0  0  0  0  0  0
   -1.3307    2.9267   26.7987 C   0  0  0  0  0  0  0  0  0  0  0  0
   -2.0208    0.6855   27.2504 O   0  0  0  0  0  0  0  0  0  0  0  0
   -1.5941   -0.4931   27.8208 N   0  0  0  0  0  0  0  0  0  0  0  0
   -3.5821   -2.3170   31.7868 H   0  0  0  0  0  0  0  0  0  0  0  0
   -2.4062   -2.7865   33.0441 H   0  0  0  0  0  0  0  0  0  0  0  0
   -2.4800   -1.1095   32.4773 H   0  0  0  0  0  0  0  0  0  0  0  0
   -0.6978   -4.6302   29.1038 H   0  0  0  0  0  0  0  0  0  0  0  0
    0.7151   -4.0505   29.9680 H   0  0  0  0  0  0  0  0  0  0  0  0
   -1.3420   -2.4444   28.4230 H   0  0  0  0  0  0  0  0  0  0  0  0
    2.3484   -3.1467   29.3665 H   0  0  0  0  0  0  0  0  0  0  0  0
    3.5011   -1.8663   29.3242 H   0  0  0  0  0  0  0  0  0  0  0  0
    2.8490   -1.0350   31.5582 H   0  0  0  0  0  0  0  0  0  0  0  0
    3.4916   -2.6893   31.5441 H   0  0  0  0  0  0  0  0  0  0  0  0
    0.6600   -1.9638   31.6035 H   0  0  0  0  0  0  0  0  0  0  0  0
    1.6076   -1.2366   33.5975 H   0  0  0  0  0  0  0  0  0  0  0  0
    2.6451   -2.6700   35.1725 H   0  0  0  0  0  0  0  0  0  0  0  0
    3.6060   -2.8006   33.7190 H   0  0  0  0  0  0  0  0  0  0  0  0
    2.5243   -5.0070   33.1688 H   0  0  0  0  0  0  0  0  0  0  0  0
    3.4425   -4.6005   36.0503 H   0  0  0  0  0  0  0  0  0  0  0  0
    4.5078   -4.9042   34.6682 H   0  0  0  0  0  0  0  0  0  0  0  0
    4.5766   -5.8844   37.0207 H   0  0  0  0  0  0  0  0  0  0  0  0
    5.4083   -7.9288   37.9068 H   0  0  0  0  0  0  0  0  0  0  0  0
    4.1880   -8.8311   36.9905 H   0  0  0  0  0  0  0  0  0  0  0  0
    4.9502   -8.1125   40.2377 H   0  0  0  0  0  0  0  0  0  0  0  0
    3.3834   -8.0329   42.1379 H   0  0  0  0  0  0  0  0  0  0  0  0
    0.9553   -7.7323   41.7483 H   0  0  0  0  0  0  0  0  0  0  0  0
    0.0926   -7.4910   39.4377 H   0  0  0  0  0  0  0  0  0  0  0  0
    1.6329   -7.5620   37.5238 H   0  0  0  0  0  0  0  0  0  0  0  0
   -0.8832   -4.3485   34.5900 H   0  0  0  0  0  0  0  0  0  0  0  0
    1.0664    1.4590   27.9976 H   0  0  0  0  0  0  0  0  0  0  0  0
   -1.8304    2.8737   25.8262 H   0  0  0  0  0  0  0  0  0  0  0  0
   -1.9925    3.4509   27.4952 H   0  0  0  0  0  0  0  0  0  0  0  0
   -0.4232    3.5262   26.6774 H   0  0  0  0  0  0  0  0  0  0  0  0
  1  2  1  0
  2  3  1  0
  3  4  2  0
  3  5  1  0
  5  6  1  0
  6  7  1  0
  7  8  2  3
  8  9  1  0
  9 10  1  0
 10 11  1  0
 11 12  1  0
 12 13  1  0
 13 14  1  0
 14 15  1  0
 15 16  1  0
 16 17  2  0
 16 18  1  0
 18 19  1  0
 19 20  1  0
 20 21  2  0
 21 22  1  0
 22 23  2  0
 23 24  1  0
 24 25  2  0
 14 26  1  0
 26 27  2  0
 26 28  1  0
 28 29  1  0
 29 30  2  0
  7 31  1  0
 31 32  1  0
 32 33  2  0
 33 34  1  0
 33 35  1  0
 35 36  1  0
 29 12  1  0
 36 31  2  0
 25 20  1  0
  1 37  1  0
  1 38  1  0
  1 39  1  0
  5 40  1  0
  5 41  1  0
  6 42  1  0
  9 43  1  0
  9 44  1  0
 10 45  1  0
 10 46  1  0
 11 47  1  0
 12 48  1  0
 13 49  1  0
 13 50  1  0
 14 51  1  0
 15 52  1  0
 15 53  1  0
 18 54  1  0
 19 55  1  0
 19 56  1  0
 21 57  1  0
 22 58  1  0
 23 59  1  0
 24 60  1  0
 25 61  1  0
 28 62  1  0
 32 63  1  0
 34 64  1  0
 34 65  1  0
 34 66  1  0
M  END
>  <Energy>  (215) 
62.932932754642295

>  <compound_id>  (215) 
3997

>  <target_id>  (215) 
1

>  <reference_id>  (215) 
140

>  <inspiration_ids>  (215) 
[140, 13]

>  <energy_score>  (215) 
-32.633249403204815

>  <distance_score>  (215) 
2.0139062318568506

>  <path>  (215) 
/opt/xchem-fragalysis-2/maxwin/BulkDock/SCRATCH/505735/C3997-P140/C3997-P140.minimised.mol

>  <scratch_subdir>  (215) 
/opt/xchem-fragalysis-2/maxwin/BulkDock/SCRATCH/505735/C3997-P140

>  <fragmenstein_runtime>  (215) 
5.961012601852417

>  <fragmenstein_outcome>  (215) 
too moved

>  <fragmenstein_mode>  (215) 
expansion

>  <fragmenstein_error>  (215) 


$$$$
C3997-P13
     RDKit          3D

 66 68  0  0  0  0  0  0  0  0999 V2000
   -2.9219   -2.1199   32.0314 C   0  0  0  0  0  0  0  0  0  0  0  0
   -1.9359   -2.2765   31.0112 O   0  0  0  0  0  0  0  0  0  0  0  0
   -1.3440   -3.5046   30.9230 C   0  0  0  0  0  0  0  0  0  0  0  0
   -1.6112   -4.4409   31.6702 O   0  0  0  0  0  0  0  0  0  0  0  0
   -0.3672   -3.6152   29.7471 C   0  0  0  0  0  0  0  0  0  0  0  0
   -0.4048   -2.4144   28.9760 N   0  0  0  0  0  0  0  0  0  0  0  0
    0.4842   -1.1257   29.0507 C   0  0  0  0  0  0  0  0  0  0  0  0
    1.4560   -0.8815   29.7220 N   0  0  0  0  0  0  0  0  0  0  0  0
    2.2992   -1.7697   30.4821 C   0  0  0  0  0  0  0  0  0  0  0  0
    2.1182   -1.6300   31.9984 C   0  0  0  0  0  0  0  0  0  0  0  0
    0.9364   -2.3564   32.5051 N   0  0  0  0  0  0  0  0  0  0  0  0
    1.0191   -2.5741   33.9748 C   0  0  0  0  0  0  0  0  0  0  0  0
    2.0226   -3.6671   34.3647 C   0  0  0  0  0  0  0  0  0  0  0  0
    1.6052   -4.9775   33.6976 C   0  0  0  0  0  0  0  0  0  0  0  0
    2.7015   -6.0264   33.6888 C   0  0  0  0  0  0  0  0  0  0  0  0
    2.8991   -6.9984   34.8472 C   0  0  0  0  0  0  0  0  0  0  0  0
    2.6413   -8.1300   34.7333 O   0  0  0  0  0  0  0  0  0  0  0  0
    3.5485   -6.2337   36.0198 N   0  0  0  0  0  0  0  0  0  0  0  0
    4.1027   -6.7159   37.2577 C   0  0  0  0  0  0  0  0  0  0  0  0
    3.1243   -6.9937   38.3670 C   0  0  0  0  0  0  0  0  0  0  0  0
    3.6320   -7.1483   39.6700 C   0  0  0  0  0  0  0  0  0  0  0  0
    2.7959   -7.4916   40.7334 C   0  0  0  0  0  0  0  0  0  0  0  0
    1.4370   -7.6866   40.5109 C   0  0  0  0  0  0  0  0  0  0  0  0
    0.9191   -7.5418   39.2261 C   0  0  0  0  0  0  0  0  0  0  0  0
    1.7559   -7.2056   38.1586 C   0  0  0  0  0  0  0  0  0  0  0  0
    0.2552   -5.4105   34.2366 C   0  0  0  0  0  0  0  0  0  0  0  0
   -0.0594   -6.5753   34.4443 O   0  0  0  0  0  0  0  0  0  0  0  0
   -0.6329   -4.3757   34.4482 N   0  0  0  0  0  0  0  0  0  0  0  0
   -0.3569   -3.0223   34.4934 C   0  0  0  0  0  0  0  0  0  0  0  0
   -1.1825   -2.2082   34.9066 O   0  0  0  0  0  0  0  0  0  0  0  0
   -0.0868   -0.0709   28.2048 C   0  0  0  0  0  0  0  0  0  0  0  0
   -1.4391    0.0687   27.7832 C   0  0  0  0  0  0  0  0  0  0  0  0
   -1.4762    1.2774   27.1455 C   0  0  0  0  0  0  0  0  0  0  0  0
   -2.5230    2.0969   26.5388 C   0  0  0  0  0  0  0  0  0  0  0  0
   -0.2352    1.8076   27.1173 O   0  0  0  0  0  0  0  0  0  0  0  0
    0.6410    0.9791   27.7875 N   0  0  0  0  0  0  0  0  0  0  0  0
   -3.8551   -2.5945   31.7195 H   0  0  0  0  0  0  0  0  0  0  0  0
   -2.5955   -2.5446   32.9767 H   0  0  0  0  0  0  0  0  0  0  0  0
   -3.0993   -1.0505   32.1724 H   0  0  0  0  0  0  0  0  0  0  0  0
   -0.7186   -4.4339   29.1184 H   0  0  0  0  0  0  0  0  0  0  0  0
    0.6176   -3.8791   30.1197 H   0  0  0  0  0  0  0  0  0  0  0  0
   -1.0969   -2.3056   28.2380 H   0  0  0  0  0  0  0  0  0  0  0  0
    2.2543   -2.8092   30.1545 H   0  0  0  0  0  0  0  0  0  0  0  0
    3.3330   -1.4734   30.2592 H   0  0  0  0  0  0  0  0  0  0  0  0
    2.0501   -0.5725   32.2808 H   0  0  0  0  0  0  0  0  0  0  0  0
    3.0304   -2.0270   32.4541 H   0  0  0  0  0  0  0  0  0  0  0  0
    0.1368   -1.7382   32.3202 H   0  0  0  0  0  0  0  0  0  0  0  0
    1.2724   -1.6385   34.4887 H   0  0  0  0  0  0  0  0  0  0  0  0
    2.0190   -3.7798   35.4567 H   0  0  0  0  0  0  0  0  0  0  0  0
    3.0416   -3.3875   34.0800 H   0  0  0  0  0  0  0  0  0  0  0  0
    1.4247   -4.7798   32.6313 H   0  0  0  0  0  0  0  0  0  0  0  0
    3.6731   -5.5646   33.4703 H   0  0  0  0  0  0  0  0  0  0  0  0
    2.4927   -6.6619   32.8197 H   0  0  0  0  0  0  0  0  0  0  0  0
    3.5507   -5.2452   35.8173 H   0  0  0  0  0  0  0  0  0  0  0  0
    4.8331   -5.9667   37.5817 H   0  0  0  0  0  0  0  0  0  0  0  0
    4.6313   -7.6476   37.0271 H   0  0  0  0  0  0  0  0  0  0  0  0
    4.6953   -7.0188   39.8631 H   0  0  0  0  0  0  0  0  0  0  0  0
    3.2061   -7.6136   41.7324 H   0  0  0  0  0  0  0  0  0  0  0  0
    0.7824   -7.9601   41.3342 H   0  0  0  0  0  0  0  0  0  0  0  0
   -0.1380   -7.7103   39.0483 H   0  0  0  0  0  0  0  0  0  0  0  0
    1.3234   -7.1436   37.1629 H   0  0  0  0  0  0  0  0  0  0  0  0
   -1.5688   -4.6291   34.7461 H   0  0  0  0  0  0  0  0  0  0  0  0
   -2.2801   -0.5786   27.9714 H   0  0  0  0  0  0  0  0  0  0  0  0
   -3.4889    1.5848   26.5505 H   0  0  0  0  0  0  0  0  0  0  0  0
   -2.6365    3.0415   27.0797 H   0  0  0  0  0  0  0  0  0  0  0  0
   -2.2799    2.3276   25.4968 H   0  0  0  0  0  0  0  0  0  0  0  0
  1  2  1  0
  2  3  1  0
  3  4  2  0
  3  5  1  0
  5  6  1  0
  6  7  1  0
  7  8  2  3
  8  9  1  0
  9 10  1  0
 10 11  1  0
 11 12  1  0
 12 13  1  0
 13 14  1  0
 14 15  1  0
 15 16  1  0
 16 17  2  0
 16 18  1  0
 18 19  1  0
 19 20  1  0
 20 21  2  0
 21 22  1  0
 22 23  2  0
 23 24  1  0
 24 25  2  0
 14 26  1  0
 26 27  2  0
 26 28  1  0
 28 29  1  0
 29 30  2  0
  7 31  1  0
 31 32  1  0
 32 33  2  0
 33 34  1  0
 33 35  1  0
 35 36  1  0
 29 12  1  0
 36 31  2  0
 25 20  1  0
  1 37  1  0
  1 38  1  0
  1 39  1  0
  5 40  1  0
  5 41  1  0
  6 42  1  0
  9 43  1  0
  9 44  1  0
 10 45  1  0
 10 46  1  0
 11 47  1  0
 12 48  1  0
 13 49  1  0
 13 50  1  0
 14 51  1  0
 15 52  1  0
 15 53  1  0
 18 54  1  0
 19 55  1  0
 19 56  1  0
 21 57  1  0
 22 58  1  0
 23 59  1  0
 24 60  1  0
 25 61  1  0
 28 62  1  0
 32 63  1  0
 34 64  1  0
 34 65  1  0
 34 66  1  0
M  END
>  <Energy>  (216) 
79.580191481528956

>  <compound_id>  (216) 
3997

>  <target_id>  (216) 
1

>  <reference_id>  (216) 
13

>  <inspiration_ids>  (216) 
[140, 13]

>  <energy_score>  (216) 
-15.985990676317442

>  <distance_score>  (216) 
2.0212224595980706

>  <path>  (216) 
/opt/xchem-fragalysis-2/maxwin/BulkDock/SCRATCH/505735/C3997-P13/C3997-P13.minimised.mol

>  <scratch_subdir>  (216) 
/opt/xchem-fragalysis-2/maxwin/BulkDock/SCRATCH/505735/C3997-P13

>  <fragmenstein_runtime>  (216) 
8.095430374145508

>  <fragmenstein_outcome>  (216) 
too moved

>  <fragmenstein_mode>  (216) 
expansion

>  <fragmenstein_error>  (216) 


$$$$
C3998-P140
     RDKit          3D

 37 39  0  0  0  0  0  0  0  0999 V2000
    2.9084   -6.8092   34.5426 O   0  0  0  0  0  0  0  0  0  0  0  0
    2.6769   -5.9500   35.3005 C   0  0  0  0  0  0  0  0  0  0  0  0
    1.7082   -4.7734   35.0111 C   0  0  0  0  0  0  0  0  0  0  0  0
    0.8216   -5.1343   33.9205 N   0  0  0  0  0  0  0  0  0  0  0  0
    1.1437   -4.7809   32.6238 C   0  0  0  0  0  0  0  0  0  0  0  0
    0.4445   -5.2898   31.6081 C   0  0  0  0  0  0  0  0  0  0  0  0
   -0.6178   -6.1288   31.8094 N   0  0  0  0  0  0  0  0  0  0  0  0
   -0.7671   -7.1896   30.9001 N   0  0  0  0  0  0  0  0  0  0  0  0
   -1.4728   -8.1799   31.7008 C   0  0  0  0  0  0  0  0  0  0  0  0
   -1.0838   -7.9288   33.0590 N   0  0  0  0  0  0  0  0  0  0  0  0
   -0.8863   -6.5744   33.1090 N   0  0  0  0  0  0  0  0  0  0  0  0
   -0.1824   -6.0763   34.2190 C   0  0  0  0  0  0  0  0  0  0  0  0
   -0.3947   -6.4795   35.3696 O   0  0  0  0  0  0  0  0  0  0  0  0
    3.1902   -5.7196   36.7464 N   0  0  0  0  0  0  0  0  0  0  0  0
    4.0119   -6.5420   37.5839 C   0  0  0  0  0  0  0  0  0  0  0  0
    3.2271   -7.0656   38.7562 C   0  0  0  0  0  0  0  0  0  0  0  0
    3.8704   -7.2759   39.9831 C   0  0  0  0  0  0  0  0  0  0  0  0
    3.1692   -7.7959   41.0723 C   0  0  0  0  0  0  0  0  0  0  0  0
    1.8197   -8.1151   40.9472 C   0  0  0  0  0  0  0  0  0  0  0  0
    1.1705   -7.9199   39.7329 C   0  0  0  0  0  0  0  0  0  0  0  0
    1.8702   -7.4113   38.6400 C   0  0  0  0  0  0  0  0  0  0  0  0
    2.2926   -3.8825   34.7572 H   0  0  0  0  0  0  0  0  0  0  0  0
    1.1021   -4.5595   35.8986 H   0  0  0  0  0  0  0  0  0  0  0  0
    1.9929   -4.1261   32.4648 H   0  0  0  0  0  0  0  0  0  0  0  0
    0.6895   -5.0831   30.5725 H   0  0  0  0  0  0  0  0  0  0  0  0
   -1.3269   -6.9019   30.1048 H   0  0  0  0  0  0  0  0  0  0  0  0
   -1.2174   -9.1860   31.3700 H   0  0  0  0  0  0  0  0  0  0  0  0
   -2.5521   -8.0327   31.6142 H   0  0  0  0  0  0  0  0  0  0  0  0
   -1.7615   -8.2360   33.7522 H   0  0  0  0  0  0  0  0  0  0  0  0
    2.8518   -4.8279   37.0877 H   0  0  0  0  0  0  0  0  0  0  0  0
    4.3966   -7.3786   36.9922 H   0  0  0  0  0  0  0  0  0  0  0  0
    4.8484   -5.9201   37.9180 H   0  0  0  0  0  0  0  0  0  0  0  0
    4.9262   -7.0436   40.1003 H   0  0  0  0  0  0  0  0  0  0  0  0
    3.6775   -7.9637   42.0179 H   0  0  0  0  0  0  0  0  0  0  0  0
    1.2763   -8.5420   41.7859 H   0  0  0  0  0  0  0  0  0  0  0  0
    0.1279   -8.2064   39.6243 H   0  0  0  0  0  0  0  0  0  0  0  0
    1.3428   -7.3124   37.6928 H   0  0  0  0  0  0  0  0  0  0  0  0
  1  2  2  0
  2  3  1  0
  3  4  1  0
  4  5  1  0
  5  6  2  0
  6  7  1  0
  7  8  1  0
  8  9  1  0
  9 10  1  0
 10 11  1  0
 11 12  1  0
 12 13  2  0
  2 14  1  0
 14 15  1  0
 15 16  1  0
 16 17  2  0
 17 18  1  0
 18 19  2  0
 19 20  1  0
 20 21  2  0
 12  4  1  0
 21 16  1  0
 11  7  1  0
  3 22  1  0
  3 23  1  0
  5 24  1  0
  6 25  1  0
  8 26  1  0
  9 27  1  0
  9 28  1  0
 10 29  1  0
 14 30  1  0
 15 31  1  0
 15 32  1  0
 17 33  1  0
 18 34  1  0
 19 35  1  0
 20 36  1  0
 21 37  1  0
M  END
>  <Energy>  (217) 
68.414430021258624

>  <compound_id>  (217) 
3998

>  <target_id>  (217) 
1

>  <reference_id>  (217) 
140

>  <inspiration_ids>  (217) 
[140, 25]

>  <energy_score>  (217) 
-2.3169527963334815

>  <distance_score>  (217) 
0.9883713274583168

>  <path>  (217) 
/opt/xchem-fragalysis-2/maxwin/BulkDock/SCRATCH/505735/C3998-P140/C3998-P140.minimised.mol

>  <scratch_subdir>  (217) 
/opt/xchem-fragalysis-2/maxwin/BulkDock/SCRATCH/505735/C3998-P140

>  <fragmenstein_runtime>  (217) 
2.3515517711639404

>  <fragmenstein_outcome>  (217) 
acceptable

>  <fragmenstein_mode>  (217) 
expansion

>  <fragmenstein_error>  (217) 


$$$$
C3998-P25
     RDKit          3D

 37 39  0  0  0  0  0  0  0  0999 V2000
    3.2854   -3.9076   35.2150 O   0  0  0  0  0  0  0  0  0  0  0  0
    2.3415   -4.5015   35.5606 C   0  0  0  0  0  0  0  0  0  0  0  0
    0.9121   -4.1201   35.1340 C   0  0  0  0  0  0  0  0  0  0  0  0
    0.4583   -5.0488   34.1025 N   0  0  0  0  0  0  0  0  0  0  0  0
    0.6311   -4.7105   32.7685 C   0  0  0  0  0  0  0  0  0  0  0  0
    0.2028   -5.5432   31.8169 C   0  0  0  0  0  0  0  0  0  0  0  0
   -0.3053   -6.7664   32.1395 N   0  0  0  0  0  0  0  0  0  0  0  0
   -1.1327   -7.4507   31.2696 N   0  0  0  0  0  0  0  0  0  0  0  0
   -1.8532   -8.3561   32.1601 C   0  0  0  0  0  0  0  0  0  0  0  0
   -1.6125   -7.9562   33.5373 N   0  0  0  0  0  0  0  0  0  0  0  0
   -0.5508   -7.0953   33.4514 N   0  0  0  0  0  0  0  0  0  0  0  0
   -0.2207   -6.2217   34.4986 C   0  0  0  0  0  0  0  0  0  0  0  0
   -0.4552   -6.4810   35.6848 O   0  0  0  0  0  0  0  0  0  0  0  0
    2.2220   -5.7825   36.4240 N   0  0  0  0  0  0  0  0  0  0  0  0
    3.2283   -6.5380   37.1152 C   0  0  0  0  0  0  0  0  0  0  0  0
    2.7247   -7.1215   38.4072 C   0  0  0  0  0  0  0  0  0  0  0  0
    3.4956   -7.0184   39.5738 C   0  0  0  0  0  0  0  0  0  0  0  0
    3.0425   -7.5666   40.7755 C   0  0  0  0  0  0  0  0  0  0  0  0
    1.8161   -8.2248   40.8252 C   0  0  0  0  0  0  0  0  0  0  0  0
    1.0478   -8.3494   39.6713 C   0  0  0  0  0  0  0  0  0  0  0  0
    1.5040   -7.8130   38.4674 C   0  0  0  0  0  0  0  0  0  0  0  0
    0.9135   -3.0926   34.7523 H   0  0  0  0  0  0  0  0  0  0  0  0
    0.2462   -4.1430   36.0036 H   0  0  0  0  0  0  0  0  0  0  0  0
    1.0792   -3.7496   32.5355 H   0  0  0  0  0  0  0  0  0  0  0  0
    0.2557   -5.3041   30.7599 H   0  0  0  0  0  0  0  0  0  0  0  0
   -0.5759   -8.0072   30.6227 H   0  0  0  0  0  0  0  0  0  0  0  0
   -1.5103   -9.3721   31.9846 H   0  0  0  0  0  0  0  0  0  0  0  0
   -2.9103   -8.3152   31.9236 H   0  0  0  0  0  0  0  0  0  0  0  0
   -1.3804   -8.7598   34.1248 H   0  0  0  0  0  0  0  0  0  0  0  0
    1.2372   -5.9832   36.6017 H   0  0  0  0  0  0  0  0  0  0  0  0
    3.5493   -7.3469   36.4503 H   0  0  0  0  0  0  0  0  0  0  0  0
    4.0867   -5.8773   37.2755 H   0  0  0  0  0  0  0  0  0  0  0  0
    4.4523   -6.5006   39.5585 H   0  0  0  0  0  0  0  0  0  0  0  0
    3.6444   -7.4730   41.6759 H   0  0  0  0  0  0  0  0  0  0  0  0
    1.4615   -8.6461   41.7623 H   0  0  0  0  0  0  0  0  0  0  0  0
    0.0974   -8.8759   39.7068 H   0  0  0  0  0  0  0  0  0  0  0  0
    0.8915   -7.9444   37.5775 H   0  0  0  0  0  0  0  0  0  0  0  0
  1  2  2  0
  2  3  1  0
  3  4  1  0
  4  5  1  0
  5  6  2  0
  6  7  1  0
  7  8  1  0
  8  9  1  0
  9 10  1  0
 10 11  1  0
 11 12  1  0
 12 13  2  0
  2 14  1  0
 14 15  1  0
 15 16  1  0
 16 17  2  0
 17 18  1  0
 18 19  2  0
 19 20  1  0
 20 21  2  0
 12  4  1  0
 21 16  1  0
 11  7  1  0
  3 22  1  0
  3 23  1  0
  5 24  1  0
  6 25  1  0
  8 26  1  0
  9 27  1  0
  9 28  1  0
 10 29  1  0
 14 30  1  0
 15 31  1  0
 15 32  1  0
 17 33  1  0
 18 34  1  0
 19 35  1  0
 20 36  1  0
 21 37  1  0
M  END
>  <Energy>  (218) 
59.569467675273714

>  <compound_id>  (218) 
3998

>  <target_id>  (218) 
1

>  <reference_id>  (218) 
25

>  <inspiration_ids>  (218) 
[140, 25]

>  <energy_score>  (218) 
-11.161915142318435

>  <distance_score>  (218) 
1.2798831028480917

>  <path>  (218) 
/opt/xchem-fragalysis-2/maxwin/BulkDock/SCRATCH/505735/C3998-P25/C3998-P25.minimised.mol

>  <scratch_subdir>  (218) 
/opt/xchem-fragalysis-2/maxwin/BulkDock/SCRATCH/505735/C3998-P25

>  <fragmenstein_runtime>  (218) 
3.317883253097534

>  <fragmenstein_outcome>  (218) 
too moved

>  <fragmenstein_mode>  (218) 
expansion

>  <fragmenstein_error>  (218) 


$$$$
C3999-P140
     RDKit          3D

 44 46  0  0  0  0  0  0  0  0999 V2000
    3.2645   -5.5714   34.0651 C   0  0  0  0  0  0  0  0  0  0  0  0
    2.3709   -6.3721   35.0321 C   0  0  0  0  0  0  0  0  0  0  0  0
    3.2132   -7.5008   35.6484 C   0  0  0  0  0  0  0  0  0  0  0  0
    1.3915   -7.1115   34.2567 O   0  0  0  0  0  0  0  0  0  0  0  0
    0.0678   -6.8039   34.6313 C   0  0  0  0  0  0  0  0  0  0  0  0
   -0.8339   -7.5045   33.7779 N   0  0  0  0  0  0  0  0  0  0  0  0
   -1.0745   -7.1767   32.4802 C   0  0  0  0  0  0  0  0  0  0  0  0
   -1.6585   -7.9640   31.7319 O   0  0  0  0  0  0  0  0  0  0  0  0
   -0.6461   -5.7984   32.0408 C   0  0  0  0  0  0  0  0  0  0  0  0
    0.4940   -6.0435   30.4807 Br  0  0  0  0  0  0  0  0  0  0  0  0
    0.0507   -4.9599   33.1069 C   0  0  0  0  0  0  0  0  0  0  0  0
   -0.1822   -5.4095   34.4856 N   0  0  0  0  0  0  0  0  0  0  0  0
    0.6193   -4.7269   35.4839 C   0  0  0  0  0  0  0  0  0  0  0  0
    1.0752   -3.4600   35.0563 O   0  0  0  0  0  0  0  0  0  0  0  0
    1.7288   -5.5325   36.0521 N   0  0  0  0  0  0  0  0  0  0  0  0
    2.6300   -4.6618   36.8583 N   0  0  0  0  0  0  0  0  0  0  0  0
    3.4647   -5.3725   37.8577 C   0  0  0  0  0  0  0  0  0  0  0  0
    2.8184   -6.4117   38.7476 C   0  0  0  0  0  0  0  0  0  0  0  0
    3.6496   -7.3537   39.3805 C   0  0  0  0  0  0  0  0  0  0  0  0
    3.1167   -8.3310   40.2218 C   0  0  0  0  0  0  0  0  0  0  0  0
    1.7452   -8.3812   40.4459 C   0  0  0  0  0  0  0  0  0  0  0  0
    0.9099   -7.4426   39.8486 C   0  0  0  0  0  0  0  0  0  0  0  0
    1.4435   -6.4550   39.0191 C   0  0  0  0  0  0  0  0  0  0  0  0
    3.1353   -5.9215   33.0415 H   0  0  0  0  0  0  0  0  0  0  0  0
    4.3228   -5.6161   34.3432 H   0  0  0  0  0  0  0  0  0  0  0  0
    3.0245   -4.5065   34.0268 H   0  0  0  0  0  0  0  0  0  0  0  0
    3.3951   -8.3122   34.9409 H   0  0  0  0  0  0  0  0  0  0  0  0
    4.1986   -7.1828   35.9894 H   0  0  0  0  0  0  0  0  0  0  0  0
    2.6771   -7.9537   36.4850 H   0  0  0  0  0  0  0  0  0  0  0  0
   -0.1462   -7.1841   35.6401 H   0  0  0  0  0  0  0  0  0  0  0  0
   -1.0935   -8.4499   34.0455 H   0  0  0  0  0  0  0  0  0  0  0  0
   -1.5269   -5.2648   31.6870 H   0  0  0  0  0  0  0  0  0  0  0  0
    1.1148   -4.8771   32.8807 H   0  0  0  0  0  0  0  0  0  0  0  0
   -0.3358   -3.9357   33.0118 H   0  0  0  0  0  0  0  0  0  0  0  0
   -0.0566   -4.5218   36.3234 H   0  0  0  0  0  0  0  0  0  0  0  0
    1.9434   -3.4006   35.4932 H   0  0  0  0  0  0  0  0  0  0  0  0
    2.0523   -4.0308   37.4315 H   0  0  0  0  0  0  0  0  0  0  0  0
    3.8567   -4.5964   38.5297 H   0  0  0  0  0  0  0  0  0  0  0  0
    4.3554   -5.7712   37.3675 H   0  0  0  0  0  0  0  0  0  0  0  0
    4.7248   -7.3376   39.2150 H   0  0  0  0  0  0  0  0  0  0  0  0
    3.7668   -9.0646   40.6911 H   0  0  0  0  0  0  0  0  0  0  0  0
    1.3216   -9.1638   41.0719 H   0  0  0  0  0  0  0  0  0  0  0  0
   -0.1598   -7.4870   40.0317 H   0  0  0  0  0  0  0  0  0  0  0  0
    0.7621   -5.7286   38.5875 H   0  0  0  0  0  0  0  0  0  0  0  0
  1  2  1  0
  2  3  1  0
  2  4  1  0
  4  5  1  0
  5  6  1  0
  6  7  1  0
  7  8  2  0
  7  9  1  0
  9 10  1  0
  9 11  1  0
 11 12  1  0
 12 13  1  0
 13 14  1  0
 13 15  1  0
 15 16  1  0
 16 17  1  0
 17 18  1  0
 18 19  2  0
 19 20  1  0
 20 21  2  0
 21 22  1  0
 22 23  2  0
 15  2  1  0
 23 18  1  0
 12  5  1  0
  1 24  1  0
  1 25  1  0
  1 26  1  0
  3 27  1  0
  3 28  1  0
  3 29  1  0
  5 30  1  0
  6 31  1  0
  9 32  1  0
 11 33  1  0
 11 34  1  0
 13 35  1  0
 14 36  1  0
 16 37  1  0
 17 38  1  0
 17 39  1  0
 19 40  1  0
 20 41  1  0
 21 42  1  0
 22 43  1  0
 23 44  1  0
M  END
>  <Energy>  (219) 
-129.28187016558397

>  <compound_id>  (219) 
3999

>  <target_id>  (219) 
1

>  <reference_id>  (219) 
140

>  <inspiration_ids>  (219) 
[140, 40]

>  <energy_score>  (219) 
-51.187535264872054

>  <distance_score>  (219) 
1.2567801870911939

>  <path>  (219) 
/opt/xchem-fragalysis-2/maxwin/BulkDock/SCRATCH/505735/C3999-P140/C3999-P140.minimised.mol

>  <scratch_subdir>  (219) 
/opt/xchem-fragalysis-2/maxwin/BulkDock/SCRATCH/505735/C3999-P140

>  <fragmenstein_runtime>  (219) 
2.4036436080932617

>  <fragmenstein_outcome>  (219) 
too moved

>  <fragmenstein_mode>  (219) 
expansion

>  <fragmenstein_error>  (219) 


$$$$
C3999-P40
     RDKit          3D

 44 46  0  0  0  0  0  0  0  0999 V2000
    0.6918   -8.2733   36.3479 C   0  0  0  0  0  0  0  0  0  0  0  0
    0.4472   -6.7676   36.2018 C   0  0  0  0  0  0  0  0  0  0  0  0
    0.0365   -6.1669   37.5612 C   0  0  0  0  0  0  0  0  0  0  0  0
   -0.7903   -6.6597   35.4884 O   0  0  0  0  0  0  0  0  0  0  0  0
   -0.7443   -6.4109   34.1268 C   0  0  0  0  0  0  0  0  0  0  0  0
   -0.7732   -7.6450   33.4186 N   0  0  0  0  0  0  0  0  0  0  0  0
   -0.9504   -7.5716   32.0554 C   0  0  0  0  0  0  0  0  0  0  0  0
   -1.5904   -8.4203   31.4406 O   0  0  0  0  0  0  0  0  0  0  0  0
   -0.3414   -6.3261   31.4396 C   0  0  0  0  0  0  0  0  0  0  0  0
    0.3052   -6.7568   29.6706 Br  0  0  0  0  0  0  0  0  0  0  0  0
    0.7899   -5.8193   32.3329 C   0  0  0  0  0  0  0  0  0  0  0  0
    0.2844   -5.5448   33.6618 N   0  0  0  0  0  0  0  0  0  0  0  0
    1.1459   -5.0610   34.6897 C   0  0  0  0  0  0  0  0  0  0  0  0
    2.2749   -4.4174   34.1229 O   0  0  0  0  0  0  0  0  0  0  0  0
    1.6310   -6.1555   35.5320 N   0  0  0  0  0  0  0  0  0  0  0  0
    2.5986   -5.5683   36.5307 N   0  0  0  0  0  0  0  0  0  0  0  0
    3.6045   -6.5277   37.0191 C   0  0  0  0  0  0  0  0  0  0  0  0
    3.3151   -7.0170   38.4233 C   0  0  0  0  0  0  0  0  0  0  0  0
    3.6232   -8.3314   38.7959 C   0  0  0  0  0  0  0  0  0  0  0  0
    3.2625   -8.8223   40.0545 C   0  0  0  0  0  0  0  0  0  0  0  0
    2.5988   -8.0049   40.9629 C   0  0  0  0  0  0  0  0  0  0  0  0
    2.3448   -6.6797   40.6324 C   0  0  0  0  0  0  0  0  0  0  0  0
    2.7344   -6.1805   39.3875 C   0  0  0  0  0  0  0  0  0  0  0  0
   -0.2302   -8.8033   36.6112 H   0  0  0  0  0  0  0  0  0  0  0  0
    1.4446   -8.5179   37.0955 H   0  0  0  0  0  0  0  0  0  0  0  0
    1.0269   -8.6903   35.3965 H   0  0  0  0  0  0  0  0  0  0  0  0
    0.2271   -5.0892   37.6102 H   0  0  0  0  0  0  0  0  0  0  0  0
   -1.0373   -6.2703   37.7408 H   0  0  0  0  0  0  0  0  0  0  0  0
    0.5238   -6.6619   38.3957 H   0  0  0  0  0  0  0  0  0  0  0  0
   -1.6870   -5.9280   33.8824 H   0  0  0  0  0  0  0  0  0  0  0  0
   -1.2472   -8.4253   33.8683 H   0  0  0  0  0  0  0  0  0  0  0  0
   -1.1172   -5.5661   31.3204 H   0  0  0  0  0  0  0  0  0  0  0  0
    1.5919   -6.5569   32.4014 H   0  0  0  0  0  0  0  0  0  0  0  0
    1.2170   -4.9122   31.8887 H   0  0  0  0  0  0  0  0  0  0  0  0
    0.6220   -4.2998   35.2826 H   0  0  0  0  0  0  0  0  0  0  0  0
    2.9002   -5.1553   34.0494 H   0  0  0  0  0  0  0  0  0  0  0  0
    3.0887   -4.7650   36.1195 H   0  0  0  0  0  0  0  0  0  0  0  0
    4.5781   -6.0227   37.0507 H   0  0  0  0  0  0  0  0  0  0  0  0
    3.7132   -7.3678   36.3221 H   0  0  0  0  0  0  0  0  0  0  0  0
    4.1123   -9.0020   38.0928 H   0  0  0  0  0  0  0  0  0  0  0  0
    3.4857   -9.8533   40.3180 H   0  0  0  0  0  0  0  0  0  0  0  0
    2.3032   -8.3928   41.9339 H   0  0  0  0  0  0  0  0  0  0  0  0
    1.8511   -6.0259   41.3470 H   0  0  0  0  0  0  0  0  0  0  0  0
    2.5222   -5.1385   39.1554 H   0  0  0  0  0  0  0  0  0  0  0  0
  1  2  1  0
  2  3  1  0
  2  4  1  0
  4  5  1  0
  5  6  1  0
  6  7  1  0
  7  8  2  0
  7  9  1  0
  9 10  1  0
  9 11  1  0
 11 12  1  0
 12 13  1  0
 13 14  1  0
 13 15  1  0
 15 16  1  0
 16 17  1  0
 17 18  1  0
 18 19  2  0
 19 20  1  0
 20 21  2  0
 21 22  1  0
 22 23  2  0
 15  2  1  0
 23 18  1  0
 12  5  1  0
  1 24  1  0
  1 25  1  0
  1 26  1  0
  3 27  1  0
  3 28  1  0
  3 29  1  0
  5 30  1  0
  6 31  1  0
  9 32  1  0
 11 33  1  0
 11 34  1  0
 13 35  1  0
 14 36  1  0
 16 37  1  0
 17 38  1  0
 17 39  1  0
 19 40  1  0
 20 41  1  0
 21 42  1  0
 22 43  1  0
 23 44  1  0
M  END
>  <Energy>  (220) 
-129.27949439849237

>  <compound_id>  (220) 
3999

>  <target_id>  (220) 
1

>  <reference_id>  (220) 
40

>  <inspiration_ids>  (220) 
[140, 40]

>  <energy_score>  (220) 
-51.18515949778008

>  <distance_score>  (220) 
1.0614113256520037

>  <path>  (220) 
/opt/xchem-fragalysis-2/maxwin/BulkDock/SCRATCH/505735/C3999-P40/C3999-P40.minimised.mol

>  <scratch_subdir>  (220) 
/opt/xchem-fragalysis-2/maxwin/BulkDock/SCRATCH/505735/C3999-P40

>  <fragmenstein_runtime>  (220) 
1.9019227027893066

>  <fragmenstein_outcome>  (220) 
too moved

>  <fragmenstein_mode>  (220) 
expansion

>  <fragmenstein_error>  (220) 


$$$$
C4002-P140
     RDKit          3D

 68 70  0  0  0  0  0  0  0  0999 V2000
    2.1639   -1.8090   29.8253 C   0  0  0  0  0  0  0  0  0  0  0  0
    2.0179   -2.8607   30.9206 C   0  0  0  0  0  0  0  0  0  0  0  0
    0.7033   -3.6862   30.8517 C   0  0  0  0  0  0  0  0  0  0  0  0
   -0.5830   -3.0156   31.4492 C   0  0  0  0  0  0  0  0  0  0  0  0
   -1.1789   -2.0183   30.4075 C   0  0  0  0  0  0  0  0  0  0  0  0
   -1.3442   -0.6865   31.1141 C   0  0  0  0  0  0  0  0  0  0  0  0
   -0.4099   -0.7634   32.3098 C   0  0  0  0  0  0  0  0  0  0  0  0
   -0.5077   -2.2208   32.7932 C   0  0  0  0  0  0  0  0  0  0  0  0
    0.5206   -2.5591   33.8045 N   0  0  0  0  0  0  0  0  0  0  0  0
    0.3052   -3.4533   35.2209 S   0  0  0  0  0  0  0  0  0  0  0  0
    0.0009   -2.3967   36.3777 O   0  0  0  0  0  0  0  0  0  0  0  0
   -1.0394   -4.3198   35.1490 O   0  0  0  0  0  0  0  0  0  0  0  0
    1.5376   -4.5083   35.7403 N   0  0  0  0  0  0  0  0  0  0  0  0
    2.1531   -4.4539   37.0969 C   0  0  0  0  0  0  0  0  0  0  0  0
    2.1068   -5.7158   37.9553 C   0  0  0  0  0  0  0  0  0  0  0  0
    3.2473   -6.1490   38.6608 C   0  0  0  0  0  0  0  0  0  0  0  0
    3.1862   -7.2375   39.5398 C   0  0  0  0  0  0  0  0  0  0  0  0
    1.9837   -7.9087   39.7280 C   0  0  0  0  0  0  0  0  0  0  0  0
    0.8488   -7.4938   39.0357 C   0  0  0  0  0  0  0  0  0  0  0  0
    0.9058   -6.4078   38.1569 C   0  0  0  0  0  0  0  0  0  0  0  0
    2.4432   -5.2306   34.8516 C   0  0  0  0  0  0  0  0  0  0  0  0
    2.5701   -6.6100   35.2063 O   0  0  0  0  0  0  0  0  0  0  0  0
    2.1402   -5.1896   33.3438 C   0  0  0  0  0  0  0  0  0  0  0  0
    0.7739   -5.3746   32.7886 N   0  0  0  0  0  0  0  0  0  0  0  0
    0.1549   -6.6046   33.2307 C   0  0  0  0  0  0  0  0  0  0  0  0
    0.0926   -6.7441   34.6232 O   0  0  0  0  0  0  0  0  0  0  0  0
   -1.2087   -6.6073   32.7835 N   0  0  0  0  0  0  0  0  0  0  0  0
   -1.6617   -7.9547   32.6144 C   0  0  0  0  0  0  0  0  0  0  0  0
   -2.5307   -8.0159   31.5075 O   0  0  0  0  0  0  0  0  0  0  0  0
    0.9050   -5.1777   31.3299 C   0  0  0  0  0  0  0  0  0  0  0  0
    0.0610   -6.0781   30.5552 N   0  0  0  0  0  0  0  0  0  0  0  0
    1.4486   -0.9927   29.9368 H   0  0  0  0  0  0  0  0  0  0  0  0
    2.0361   -2.2519   28.8325 H   0  0  0  0  0  0  0  0  0  0  0  0
    3.1659   -1.3687   29.8662 H   0  0  0  0  0  0  0  0  0  0  0  0
    2.8722   -3.5382   30.7984 H   0  0  0  0  0  0  0  0  0  0  0  0
    2.1537   -2.3743   31.8873 H   0  0  0  0  0  0  0  0  0  0  0  0
    0.5152   -3.7813   29.7710 H   0  0  0  0  0  0  0  0  0  0  0  0
   -1.3257   -3.8119   31.5879 H   0  0  0  0  0  0  0  0  0  0  0  0
   -2.1473   -2.3849   30.0542 H   0  0  0  0  0  0  0  0  0  0  0  0
   -0.5580   -1.9038   29.5151 H   0  0  0  0  0  0  0  0  0  0  0  0
   -1.1163    0.1627   30.4632 H   0  0  0  0  0  0  0  0  0  0  0  0
   -2.3794   -0.5739   31.4576 H   0  0  0  0  0  0  0  0  0  0  0  0
   -0.7072   -0.0568   33.0925 H   0  0  0  0  0  0  0  0  0  0  0  0
    0.6127   -0.5082   32.0141 H   0  0  0  0  0  0  0  0  0  0  0  0
   -1.4887   -2.3060   33.2791 H   0  0  0  0  0  0  0  0  0  0  0  0
    0.9750   -1.6941   34.0917 H   0  0  0  0  0  0  0  0  0  0  0  0
   -0.5111   -2.7837   37.1251 H   0  0  0  0  0  0  0  0  0  0  0  0
   -1.8132   -3.8852   34.7024 H   0  0  0  0  0  0  0  0  0  0  0  0
    1.6431   -3.6864   37.6916 H   0  0  0  0  0  0  0  0  0  0  0  0
    3.1858   -4.0891   37.0167 H   0  0  0  0  0  0  0  0  0  0  0  0
    4.1941   -5.6281   38.5377 H   0  0  0  0  0  0  0  0  0  0  0  0
    4.0766   -7.5583   40.0729 H   0  0  0  0  0  0  0  0  0  0  0  0
    1.9242   -8.7656   40.3948 H   0  0  0  0  0  0  0  0  0  0  0  0
   -0.0810   -8.0350   39.1821 H   0  0  0  0  0  0  0  0  0  0  0  0
    0.0023   -6.0980   37.6366 H   0  0  0  0  0  0  0  0  0  0  0  0
    3.4512   -4.8065   34.9500 H   0  0  0  0  0  0  0  0  0  0  0  0
    1.6472   -6.8567   35.4320 H   0  0  0  0  0  0  0  0  0  0  0  0
    2.7932   -5.9369   32.8819 H   0  0  0  0  0  0  0  0  0  0  0  0
    2.5154   -4.2170   33.0193 H   0  0  0  0  0  0  0  0  0  0  0  0
    0.7359   -7.4354   32.8393 H   0  0  0  0  0  0  0  0  0  0  0  0
   -0.2394   -5.8675   34.9117 H   0  0  0  0  0  0  0  0  0  0  0  0
   -1.7531   -6.1267   33.4873 H   0  0  0  0  0  0  0  0  0  0  0  0
   -0.8629   -8.6478   32.3731 H   0  0  0  0  0  0  0  0  0  0  0  0
   -2.1885   -8.2734   33.5140 H   0  0  0  0  0  0  0  0  0  0  0  0
   -3.2211   -8.6670   31.7673 H   0  0  0  0  0  0  0  0  0  0  0  0
    1.9062   -5.4813   30.9991 H   0  0  0  0  0  0  0  0  0  0  0  0
   -0.8218   -6.1707   31.0743 H   0  0  0  0  0  0  0  0  0  0  0  0
   -0.2014   -5.6597   29.6658 H   0  0  0  0  0  0  0  0  0  0  0  0
  1  2  1  0
  2  3  1  0
  3  4  1  0
  4  5  1  0
  5  6  1  0
  6  7  1  0
  7  8  1  0
  8  9  1  0
  9 10  1  0
 10 11  1  0
 10 12  1  0
 10 13  1  0
 13 14  1  0
 14 15  1  0
 15 16  2  0
 16 17  1  0
 17 18  2  0
 18 19  1  0
 19 20  2  0
 13 21  1  0
 21 22  1  0
 21 23  1  0
 23 24  1  0
 24 25  1  0
 25 26  1  0
 25 27  1  0
 27 28  1  0
 28 29  1  0
 24 30  1  0
 30 31  1  0
 30  3  1  0
  8  4  1  0
 20 15  1  0
  1 32  1  0
  1 33  1  0
  1 34  1  0
  2 35  1  0
  2 36  1  0
  3 37  1  0
  4 38  1  0
  5 39  1  0
  5 40  1  0
  6 41  1  0
  6 42  1  0
  7 43  1  0
  7 44  1  0
  8 45  1  0
  9 46  1  0
 11 47  1  0
 12 48  1  0
 14 49  1  0
 14 50  1  0
 16 51  1  0
 17 52  1  0
 18 53  1  0
 19 54  1  0
 20 55  1  0
 21 56  1  0
 22 57  1  0
 23 58  1  0
 23 59  1  0
 25 60  1  0
 26 61  1  0
 27 62  1  0
 28 63  1  0
 28 64  1  0
 29 65  1  0
 30 66  1  0
 31 67  1  0
 31 68  1  0
M  END
>  <Energy>  (221) 
-319.49068026026339

>  <compound_id>  (221) 
4002

>  <target_id>  (221) 
1

>  <reference_id>  (221) 
140

>  <inspiration_ids>  (221) 
[140, 59]

>  <energy_score>  (221) 
-182.46774794024367

>  <distance_score>  (221) 
2.049041727085053

>  <path>  (221) 
/opt/xchem-fragalysis-2/maxwin/BulkDock/SCRATCH/505735/C4002-P140/C4002-P140.minimised.mol

>  <scratch_subdir>  (221) 
/opt/xchem-fragalysis-2/maxwin/BulkDock/SCRATCH/505735/C4002-P140

>  <fragmenstein_runtime>  (221) 
6.443355083465576

>  <fragmenstein_outcome>  (221) 
too moved

>  <fragmenstein_mode>  (221) 
expansion

>  <fragmenstein_error>  (221) 


$$$$
C4002-P59
     RDKit          3D

 68 70  0  0  0  0  0  0  0  0999 V2000
    2.7424   -2.0808   30.7538 C   0  0  0  0  0  0  0  0  0  0  0  0
    2.4093   -3.3384   31.5363 C   0  0  0  0  0  0  0  0  0  0  0  0
    0.9270   -3.8108   31.5058 C   0  0  0  0  0  0  0  0  0  0  0  0
   -0.2549   -2.8291   31.8520 C   0  0  0  0  0  0  0  0  0  0  0  0
   -0.6090   -1.8878   30.6537 C   0  0  0  0  0  0  0  0  0  0  0  0
   -0.3669   -0.4717   31.1243 C   0  0  0  0  0  0  0  0  0  0  0  0
   -0.6440   -0.5285   32.6134 C   0  0  0  0  0  0  0  0  0  0  0  0
   -0.1953   -1.9154   33.1218 C   0  0  0  0  0  0  0  0  0  0  0  0
    1.0891   -1.9383   33.8459 N   0  0  0  0  0  0  0  0  0  0  0  0
    1.3617   -2.2997   35.4766 S   0  0  0  0  0  0  0  0  0  0  0  0
    2.5314   -1.3404   35.9789 O   0  0  0  0  0  0  0  0  0  0  0  0
    0.0956   -1.8298   36.3246 O   0  0  0  0  0  0  0  0  0  0  0  0
    1.7230   -3.9165   35.9061 N   0  0  0  0  0  0  0  0  0  0  0  0
    2.7331   -4.2783   36.9427 C   0  0  0  0  0  0  0  0  0  0  0  0
    2.4013   -5.4639   37.8690 C   0  0  0  0  0  0  0  0  0  0  0  0
    3.4405   -6.1692   38.5086 C   0  0  0  0  0  0  0  0  0  0  0  0
    3.1695   -7.2061   39.4135 C   0  0  0  0  0  0  0  0  0  0  0  0
    1.8531   -7.5588   39.6972 C   0  0  0  0  0  0  0  0  0  0  0  0
    0.8113   -6.8716   39.0791 C   0  0  0  0  0  0  0  0  0  0  0  0
    1.0829   -5.8291   38.1822 C   0  0  0  0  0  0  0  0  0  0  0  0
    1.7043   -4.8818   34.8147 C   0  0  0  0  0  0  0  0  0  0  0  0
    2.2969   -6.1448   35.0950 O   0  0  0  0  0  0  0  0  0  0  0  0
    0.2177   -5.0052   34.3662 C   0  0  0  0  0  0  0  0  0  0  0  0
   -0.0665   -5.7541   33.1389 N   0  0  0  0  0  0  0  0  0  0  0  0
    0.0010   -7.1840   33.4415 C   0  0  0  0  0  0  0  0  0  0  0  0
    0.1798   -7.4925   34.8118 O   0  0  0  0  0  0  0  0  0  0  0  0
   -1.2518   -7.8171   33.1355 N   0  0  0  0  0  0  0  0  0  0  0  0
   -1.3237   -8.0170   31.7198 C   0  0  0  0  0  0  0  0  0  0  0  0
   -2.1570   -9.1063   31.4677 O   0  0  0  0  0  0  0  0  0  0  0  0
    0.8265   -5.3326   32.0379 C   0  0  0  0  0  0  0  0  0  0  0  0
    0.4261   -6.0844   30.8511 N   0  0  0  0  0  0  0  0  0  0  0  0
    2.2942   -2.0888   29.7569 H   0  0  0  0  0  0  0  0  0  0  0  0
    3.8278   -2.0022   30.6265 H   0  0  0  0  0  0  0  0  0  0  0  0
    2.4282   -1.1878   31.2934 H   0  0  0  0  0  0  0  0  0  0  0  0
    3.0199   -4.1418   31.1007 H   0  0  0  0  0  0  0  0  0  0  0  0
    2.7860   -3.2137   32.5502 H   0  0  0  0  0  0  0  0  0  0  0  0
    0.7917   -3.9073   30.4161 H   0  0  0  0  0  0  0  0  0  0  0  0
   -1.1373   -3.4752   31.9708 H   0  0  0  0  0  0  0  0  0  0  0  0
   -1.6758   -2.0103   30.4232 H   0  0  0  0  0  0  0  0  0  0  0  0
   -0.0663   -2.1030   29.7296 H   0  0  0  0  0  0  0  0  0  0  0  0
    0.6605   -0.1558   30.9368 H   0  0  0  0  0  0  0  0  0  0  0  0
   -1.0207    0.2433   30.6153 H   0  0  0  0  0  0  0  0  0  0  0  0
   -1.7239   -0.4209   32.7819 H   0  0  0  0  0  0  0  0  0  0  0  0
   -0.1620    0.2959   33.1497 H   0  0  0  0  0  0  0  0  0  0  0  0
   -0.9781   -2.2306   33.8222 H   0  0  0  0  0  0  0  0  0  0  0  0
    1.6392   -1.1167   33.6050 H   0  0  0  0  0  0  0  0  0  0  0  0
    2.2124   -0.6890   36.6455 H   0  0  0  0  0  0  0  0  0  0  0  0
   -0.4241   -2.5821   36.6900 H   0  0  0  0  0  0  0  0  0  0  0  0
    2.8434   -3.4201   37.6180 H   0  0  0  0  0  0  0  0  0  0  0  0
    3.7119   -4.4240   36.4681 H   0  0  0  0  0  0  0  0  0  0  0  0
    4.4765   -5.9049   38.3059 H   0  0  0  0  0  0  0  0  0  0  0  0
    3.9897   -7.7330   39.8937 H   0  0  0  0  0  0  0  0  0  0  0  0
    1.6394   -8.3609   40.3980 H   0  0  0  0  0  0  0  0  0  0  0  0
   -0.2190   -7.1330   39.3062 H   0  0  0  0  0  0  0  0  0  0  0  0
    0.2483   -5.2934   37.7378 H   0  0  0  0  0  0  0  0  0  0  0  0
    2.3288   -4.4768   34.0257 H   0  0  0  0  0  0  0  0  0  0  0  0
    1.5753   -6.7054   35.4501 H   0  0  0  0  0  0  0  0  0  0  0  0
   -0.2431   -4.0419   34.2293 H   0  0  0  0  0  0  0  0  0  0  0  0
   -0.3871   -5.3858   35.2026 H   0  0  0  0  0  0  0  0  0  0  0  0
    0.8501   -7.6578   32.9492 H   0  0  0  0  0  0  0  0  0  0  0  0
   -0.7376   -7.6343   35.1073 H   0  0  0  0  0  0  0  0  0  0  0  0
   -1.1941   -8.7561   33.5399 H   0  0  0  0  0  0  0  0  0  0  0  0
   -1.7624   -7.1586   31.2136 H   0  0  0  0  0  0  0  0  0  0  0  0
   -0.3762   -8.2976   31.2571 H   0  0  0  0  0  0  0  0  0  0  0  0
   -2.9050   -9.0410   32.0952 H   0  0  0  0  0  0  0  0  0  0  0  0
    1.8427   -5.6779   32.2651 H   0  0  0  0  0  0  0  0  0  0  0  0
   -0.4164   -5.6453   30.4803 H   0  0  0  0  0  0  0  0  0  0  0  0
    1.1322   -5.9554   30.1270 H   0  0  0  0  0  0  0  0  0  0  0  0
  1  2  1  0
  2  3  1  0
  3  4  1  0
  4  5  1  0
  5  6  1  0
  6  7  1  0
  7  8  1  0
  8  9  1  0
  9 10  1  0
 10 11  1  0
 10 12  1  0
 10 13  1  0
 13 14  1  0
 14 15  1  0
 15 16  2  0
 16 17  1  0
 17 18  2  0
 18 19  1  0
 19 20  2  0
 13 21  1  0
 21 22  1  0
 21 23  1  0
 23 24  1  0
 24 25  1  0
 25 26  1  0
 25 27  1  0
 27 28  1  0
 28 29  1  0
 24 30  1  0
 30 31  1  0
 30  3  1  0
  8  4  1  0
 20 15  1  0
  1 32  1  0
  1 33  1  0
  1 34  1  0
  2 35  1  0
  2 36  1  0
  3 37  1  0
  4 38  1  0
  5 39  1  0
  5 40  1  0
  6 41  1  0
  6 42  1  0
  7 43  1  0
  7 44  1  0
  8 45  1  0
  9 46  1  0
 11 47  1  0
 12 48  1  0
 14 49  1  0
 14 50  1  0
 16 51  1  0
 17 52  1  0
 18 53  1  0
 19 54  1  0
 20 55  1  0
 21 56  1  0
 22 57  1  0
 23 58  1  0
 23 59  1  0
 25 60  1  0
 26 61  1  0
 27 62  1  0
 28 63  1  0
 28 64  1  0
 29 65  1  0
 30 66  1  0
 31 67  1  0
 31 68  1  0
M  END
>  <Energy>  (222) 
-310.17130679922565

>  <compound_id>  (222) 
4002

>  <target_id>  (222) 
1

>  <reference_id>  (222) 
59

>  <inspiration_ids>  (222) 
[140, 59]

>  <energy_score>  (222) 
-173.14837447920468

>  <distance_score>  (222) 
2.0164526414566115

>  <path>  (222) 
/opt/xchem-fragalysis-2/maxwin/BulkDock/SCRATCH/505735/C4002-P59/C4002-P59.minimised.mol

>  <scratch_subdir>  (222) 
/opt/xchem-fragalysis-2/maxwin/BulkDock/SCRATCH/505735/C4002-P59

>  <fragmenstein_runtime>  (222) 
5.167259216308594

>  <fragmenstein_outcome>  (222) 
too moved

>  <fragmenstein_mode>  (222) 
expansion

>  <fragmenstein_error>  (222) 


$$$$
C4004-P140
     RDKit          3D

 33 35  0  0  0  0  0  0  0  0999 V2000
    4.1101   -7.8272   40.4726 C   0  0  0  0  0  0  0  0  0  0  0  0
    4.4832   -6.8383   39.5178 O   0  0  0  0  0  0  0  0  0  0  0  0
    3.6776   -6.6417   38.4321 C   0  0  0  0  0  0  0  0  0  0  0  0
    4.2301   -5.8081   37.4418 C   0  0  0  0  0  0  0  0  0  0  0  0
    3.5544   -5.5132   36.2406 C   0  0  0  0  0  0  0  0  0  0  0  0
    2.3003   -6.0618   35.9945 C   0  0  0  0  0  0  0  0  0  0  0  0
    1.5055   -5.8868   34.7615 C   0  0  0  0  0  0  0  0  0  0  0  0
    1.9890   -5.6874   33.4534 C   0  0  0  0  0  0  0  0  0  0  0  0
    1.1735   -6.0162   32.3357 C   0  0  0  0  0  0  0  0  0  0  0  0
   -0.0554   -6.5652   32.6067 C   0  0  0  0  0  0  0  0  0  0  0  0
   -0.4683   -6.5852   33.9061 C   0  0  0  0  0  0  0  0  0  0  0  0
    0.2226   -6.2176   34.9741 N   0  0  0  0  0  0  0  0  0  0  0  0
   -1.6807   -7.3658   34.0169 C   0  0  0  0  0  0  0  0  0  0  0  0
   -2.3473   -7.4949   35.0262 O   0  0  0  0  0  0  0  0  0  0  0  0
   -1.9041   -7.8580   32.7670 N   0  0  0  0  0  0  0  0  0  0  0  0
   -1.0385   -7.3482   31.8541 C   0  0  0  0  0  0  0  0  0  0  0  0
   -1.0830   -7.5431   30.6580 O   0  0  0  0  0  0  0  0  0  0  0  0
    1.7657   -6.8997   37.0096 C   0  0  0  0  0  0  0  0  0  0  0  0
    2.4103   -7.1593   38.2204 C   0  0  0  0  0  0  0  0  0  0  0  0
    1.8070   -8.0116   39.1014 O   0  0  0  0  0  0  0  0  0  0  0  0
    0.7917   -7.3691   39.8624 C   0  0  0  0  0  0  0  0  0  0  0  0
    3.9379   -8.8017   40.0048 H   0  0  0  0  0  0  0  0  0  0  0  0
    3.2631   -7.4935   41.0767 H   0  0  0  0  0  0  0  0  0  0  0  0
    4.9564   -7.9500   41.1566 H   0  0  0  0  0  0  0  0  0  0  0  0
    5.2165   -5.3787   37.6119 H   0  0  0  0  0  0  0  0  0  0  0  0
    4.0326   -4.8535   35.5220 H   0  0  0  0  0  0  0  0  0  0  0  0
    3.0192   -5.3827   33.2912 H   0  0  0  0  0  0  0  0  0  0  0  0
    1.5511   -5.9483   31.3217 H   0  0  0  0  0  0  0  0  0  0  0  0
   -2.6807   -8.4564   32.5165 H   0  0  0  0  0  0  0  0  0  0  0  0
    0.7960   -7.3819   36.8738 H   0  0  0  0  0  0  0  0  0  0  0  0
    0.4662   -8.0599   40.6456 H   0  0  0  0  0  0  0  0  0  0  0  0
   -0.0739   -7.1344   39.2353 H   0  0  0  0  0  0  0  0  0  0  0  0
    1.1634   -6.4568   40.3420 H   0  0  0  0  0  0  0  0  0  0  0  0
  1  2  1  0
  2  3  1  0
  3  4  2  0
  4  5  1  0
  5  6  2  0
  6  7  1  0
  7  8  2  0
  8  9  1  0
  9 10  2  0
 10 11  1  0
 11 12  2  0
 11 13  1  0
 13 14  2  0
 13 15  1  0
 15 16  1  0
 16 17  2  0
  6 18  1  0
 18 19  2  0
 19 20  1  0
 20 21  1  0
 19  3  1  0
 12  7  1  0
 16 10  1  0
  1 22  1  0
  1 23  1  0
  1 24  1  0
  4 25  1  0
  5 26  1  0
  8 27  1  0
  9 28  1  0
 15 29  1  0
 18 30  1  0
 21 31  1  0
 21 32  1  0
 21 33  1  0
M  END
>  <Energy>  (223) 
71.349701177248477

>  <compound_id>  (223) 
4004

>  <target_id>  (223) 
1

>  <reference_id>  (223) 
140

>  <inspiration_ids>  (223) 
[140, 105]

>  <energy_score>  (223) 
-12.77491869085587

>  <distance_score>  (223) 
1.4194185741663479

>  <path>  (223) 
/opt/xchem-fragalysis-2/maxwin/BulkDock/SCRATCH/505735/C4004-P140/C4004-P140.minimised.mol

>  <scratch_subdir>  (223) 
/opt/xchem-fragalysis-2/maxwin/BulkDock/SCRATCH/505735/C4004-P140

>  <fragmenstein_runtime>  (223) 
1.7858495712280273

>  <fragmenstein_outcome>  (223) 
too moved

>  <fragmenstein_mode>  (223) 
expansion

>  <fragmenstein_error>  (223) 


$$$$
C4004-P105
     RDKit          3D

 33 35  0  0  0  0  0  0  0  0999 V2000
    4.1108   -7.9370   40.4499 C   0  0  0  0  0  0  0  0  0  0  0  0
    4.3861   -6.8260   39.6023 O   0  0  0  0  0  0  0  0  0  0  0  0
    3.6352   -6.6853   38.4698 C   0  0  0  0  0  0  0  0  0  0  0  0
    4.2032   -5.8518   37.4872 C   0  0  0  0  0  0  0  0  0  0  0  0
    3.5697   -5.6019   36.2532 C   0  0  0  0  0  0  0  0  0  0  0  0
    2.3471   -6.1993   35.9697 C   0  0  0  0  0  0  0  0  0  0  0  0
    1.5690   -6.0425   34.7262 C   0  0  0  0  0  0  0  0  0  0  0  0
    2.0643   -5.9388   33.4119 C   0  0  0  0  0  0  0  0  0  0  0  0
    1.2376   -6.2993   32.3119 C   0  0  0  0  0  0  0  0  0  0  0  0
   -0.0064   -6.7983   32.6129 C   0  0  0  0  0  0  0  0  0  0  0  0
   -0.4147   -6.7438   33.9132 C   0  0  0  0  0  0  0  0  0  0  0  0
    0.2750   -6.3099   34.9550 N   0  0  0  0  0  0  0  0  0  0  0  0
   -1.6067   -7.5469   34.0812 C   0  0  0  0  0  0  0  0  0  0  0  0
   -2.2491   -7.6497   35.1090 O   0  0  0  0  0  0  0  0  0  0  0  0
   -1.8462   -8.0921   32.8569 N   0  0  0  0  0  0  0  0  0  0  0  0
   -1.0148   -7.5915   31.9056 C   0  0  0  0  0  0  0  0  0  0  0  0
   -1.1182   -7.7781   30.7118 O   0  0  0  0  0  0  0  0  0  0  0  0
    1.8030   -7.0481   36.9720 C   0  0  0  0  0  0  0  0  0  0  0  0
    2.3957   -7.2510   38.2170 C   0  0  0  0  0  0  0  0  0  0  0  0
    1.7385   -8.0623   39.1028 O   0  0  0  0  0  0  0  0  0  0  0  0
    0.8455   -7.3076   39.9189 C   0  0  0  0  0  0  0  0  0  0  0  0
    3.2593   -7.7320   41.1024 H   0  0  0  0  0  0  0  0  0  0  0  0
    4.9820   -8.0712   41.0995 H   0  0  0  0  0  0  0  0  0  0  0  0
    3.9881   -8.8678   39.8865 H   0  0  0  0  0  0  0  0  0  0  0  0
    5.1643   -5.3823   37.6920 H   0  0  0  0  0  0  0  0  0  0  0  0
    4.0473   -4.9328   35.5430 H   0  0  0  0  0  0  0  0  0  0  0  0
    3.1075   -5.6889   33.2402 H   0  0  0  0  0  0  0  0  0  0  0  0
    1.6191   -6.3056   31.2971 H   0  0  0  0  0  0  0  0  0  0  0  0
   -2.6434   -8.6751   32.6432 H   0  0  0  0  0  0  0  0  0  0  0  0
    0.8536   -7.5604   36.8047 H   0  0  0  0  0  0  0  0  0  0  0  0
    1.3402   -6.4474   40.3838 H   0  0  0  0  0  0  0  0  0  0  0  0
    0.4796   -7.9631   40.7146 H   0  0  0  0  0  0  0  0  0  0  0  0
   -0.0164   -6.9710   39.3326 H   0  0  0  0  0  0  0  0  0  0  0  0
  1  2  1  0
  2  3  1  0
  3  4  2  0
  4  5  1  0
  5  6  2  0
  6  7  1  0
  7  8  2  0
  8  9  1  0
  9 10  2  0
 10 11  1  0
 11 12  2  0
 11 13  1  0
 13 14  2  0
 13 15  1  0
 15 16  1  0
 16 17  2  0
  6 18  1  0
 18 19  2  0
 19 20  1  0
 20 21  1  0
 19  3  1  0
 12  7  1  0
 16 10  1  0
  1 22  1  0
  1 23  1  0
  1 24  1  0
  4 25  1  0
  5 26  1  0
  8 27  1  0
  9 28  1  0
 15 29  1  0
 18 30  1  0
 21 31  1  0
 21 32  1  0
 21 33  1  0
M  END
>  <Energy>  (224) 
73.367106985124437

>  <compound_id>  (224) 
4004

>  <target_id>  (224) 
1

>  <reference_id>  (224) 
105

>  <inspiration_ids>  (224) 
[140, 105]

>  <energy_score>  (224) 
-10.757512882978972

>  <distance_score>  (224) 
1.3948616153344242

>  <path>  (224) 
/opt/xchem-fragalysis-2/maxwin/BulkDock/SCRATCH/505735/C4004-P105/C4004-P105.minimised.mol

>  <scratch_subdir>  (224) 
/opt/xchem-fragalysis-2/maxwin/BulkDock/SCRATCH/505735/C4004-P105

>  <fragmenstein_runtime>  (224) 
1.4920947551727295

>  <fragmenstein_outcome>  (224) 
too moved

>  <fragmenstein_mode>  (224) 
expansion

>  <fragmenstein_error>  (224) 


$$$$
C4004-P140
     RDKit          2D

  0  0  0  0  0  0  0  0  0  0999 V2000
M  END
>  <compound_id>  (225) 
4004

>  <target_id>  (225) 
1

>  <reference_id>  (225) 
140

>  <inspiration_ids>  (225) 
[140, 128]

>  <energy_score>  (225) 
nan

>  <distance_score>  (225) 
nan

>  <path>  (225) 
/opt/xchem-fragalysis-2/maxwin/BulkDock/SCRATCH/505735/C4004-P140/C4004-P140.minimised.mol

>  <scratch_subdir>  (225) 
/opt/xchem-fragalysis-2/maxwin/BulkDock/SCRATCH/505735/C4004-P140

>  <fragmenstein_runtime>  (225) 
0.3263094425201416

>  <fragmenstein_outcome>  (225) 
too distant

>  <fragmenstein_mode>  (225) 
expansion

>  <fragmenstein_error>  (225) 
DistanceError: hit0+hit1

$$$$
C4005-P140
     RDKit          3D

 52 54  0  0  0  0  0  0  0  0999 V2000
    1.7099   -4.0055   30.5042 C   0  0  0  0  0  0  0  0  0  0  0  0
    1.0401   -3.6319   31.8063 N   0  0  0  0  0  0  0  0  0  0  0  0
    1.6628   -2.3019   31.4946 C   0  0  0  0  0  0  0  0  0  0  0  0
    3.0447   -2.0486   32.0701 C   0  0  0  0  0  0  0  0  0  0  0  0
    3.7296   -0.8890   31.6809 C   0  0  0  0  0  0  0  0  0  0  0  0
    4.9810   -0.5921   32.2187 C   0  0  0  0  0  0  0  0  0  0  0  0
    5.5590   -1.4461   33.1553 C   0  0  0  0  0  0  0  0  0  0  0  0
    4.8879   -2.5985   33.5548 C   0  0  0  0  0  0  0  0  0  0  0  0
    3.6364   -2.8963   33.0174 C   0  0  0  0  0  0  0  0  0  0  0  0
   -0.3097   -4.0428   31.7937 C   0  0  0  0  0  0  0  0  0  0  0  0
   -1.3020   -3.4612   31.4441 O   0  0  0  0  0  0  0  0  0  0  0  0
   -0.4727   -5.3977   32.3980 C   0  0  0  0  0  0  0  0  0  0  0  0
   -0.7886   -6.3481   31.5166 C   0  0  0  0  0  0  0  0  0  0  0  0
   -1.2338   -7.6424   32.0201 C   0  0  0  0  0  0  0  0  0  0  0  0
   -1.4852   -8.5440   31.2299 O   0  0  0  0  0  0  0  0  0  0  0  0
   -1.3755   -7.7332   33.3709 N   0  0  0  0  0  0  0  0  0  0  0  0
   -0.9579   -6.8097   34.2836 C   0  0  0  0  0  0  0  0  0  0  0  0
   -1.0025   -7.0630   35.4856 O   0  0  0  0  0  0  0  0  0  0  0  0
   -0.4861   -5.6204   33.7612 N   0  0  0  0  0  0  0  0  0  0  0  0
    0.1453   -4.7151   34.7124 C   0  0  0  0  0  0  0  0  0  0  0  0
    1.5464   -5.3086   35.0643 C   0  0  0  0  0  0  0  0  0  0  0  0
    2.1162   -6.0043   34.2684 O   0  0  0  0  0  0  0  0  0  0  0  0
    1.9367   -4.8704   36.3744 N   0  0  0  0  0  0  0  0  0  0  0  0
    3.0825   -5.2019   37.1779 C   0  0  0  0  0  0  0  0  0  0  0  0
    2.7355   -6.0323   38.3876 C   0  0  0  0  0  0  0  0  0  0  0  0
    3.5394   -5.9443   39.5360 C   0  0  0  0  0  0  0  0  0  0  0  0
    3.2711   -6.7285   40.6607 C   0  0  0  0  0  0  0  0  0  0  0  0
    2.1997   -7.6162   40.6508 C   0  0  0  0  0  0  0  0  0  0  0  0
    1.4023   -7.7246   39.5155 C   0  0  0  0  0  0  0  0  0  0  0  0
    1.6732   -6.9491   38.3867 C   0  0  0  0  0  0  0  0  0  0  0  0
    1.1749   -3.6262   29.6186 H   0  0  0  0  0  0  0  0  0  0  0  0
    2.8010   -3.8860   30.4469 H   0  0  0  0  0  0  0  0  0  0  0  0
    1.5865   -5.0955   30.4209 H   0  0  0  0  0  0  0  0  0  0  0  0
    1.4989   -1.8735   30.4886 H   0  0  0  0  0  0  0  0  0  0  0  0
    1.0245   -1.6310   32.0949 H   0  0  0  0  0  0  0  0  0  0  0  0
    3.2885   -0.2009   30.9622 H   0  0  0  0  0  0  0  0  0  0  0  0
    5.5043    0.3104   31.9126 H   0  0  0  0  0  0  0  0  0  0  0  0
    6.5339   -1.2116   33.5752 H   0  0  0  0  0  0  0  0  0  0  0  0
    5.3382   -3.2662   34.2847 H   0  0  0  0  0  0  0  0  0  0  0  0
    3.1338   -3.8023   33.3398 H   0  0  0  0  0  0  0  0  0  0  0  0
   -0.7897   -6.2044   30.4459 H   0  0  0  0  0  0  0  0  0  0  0  0
   -1.6362   -8.6266   33.7703 H   0  0  0  0  0  0  0  0  0  0  0  0
   -0.4776   -4.6596   35.6126 H   0  0  0  0  0  0  0  0  0  0  0  0
    0.2649   -3.7046   34.3156 H   0  0  0  0  0  0  0  0  0  0  0  0
    1.2411   -4.2226   36.7269 H   0  0  0  0  0  0  0  0  0  0  0  0
    3.7988   -5.7501   36.5568 H   0  0  0  0  0  0  0  0  0  0  0  0
    3.5322   -4.2514   37.4833 H   0  0  0  0  0  0  0  0  0  0  0  0
    4.3865   -5.2622   39.5636 H   0  0  0  0  0  0  0  0  0  0  0  0
    3.9002   -6.6497   41.5433 H   0  0  0  0  0  0  0  0  0  0  0  0
    1.9883   -8.2353   41.5188 H   0  0  0  0  0  0  0  0  0  0  0  0
    0.5757   -8.4311   39.5037 H   0  0  0  0  0  0  0  0  0  0  0  0
    1.0437   -7.0816   37.5091 H   0  0  0  0  0  0  0  0  0  0  0  0
  1  2  1  0
  2  3  1  0
  3  4  1  0
  4  5  2  0
  5  6  1  0
  6  7  2  0
  7  8  1  0
  8  9  2  0
  2 10  1  0
 10 11  2  0
 10 12  1  0
 12 13  2  0
 13 14  1  0
 14 15  2  0
 14 16  1  0
 16 17  1  0
 17 18  2  0
 17 19  1  0
 19 20  1  0
 20 21  1  0
 21 22  2  0
 21 23  1  0
 23 24  1  0
 24 25  1  0
 25 26  2  0
 26 27  1  0
 27 28  2  0
 28 29  1  0
 29 30  2  0
  9  4  1  0
 19 12  1  0
 30 25  1  0
  1 31  1  0
  1 32  1  0
  1 33  1  0
  3 34  1  0
  3 35  1  0
  5 36  1  0
  6 37  1  0
  7 38  1  0
  8 39  1  0
  9 40  1  0
 13 41  1  0
 16 42  1  0
 20 43  1  0
 20 44  1  0
 23 45  1  0
 24 46  1  0
 24 47  1  0
 26 48  1  0
 27 49  1  0
 28 50  1  0
 29 51  1  0
 30 52  1  0
M  END
>  <Energy>  (226) 
6.1543580043605228

>  <compound_id>  (226) 
4005

>  <target_id>  (226) 
1

>  <reference_id>  (226) 
140

>  <inspiration_ids>  (226) 
[140, 129]

>  <energy_score>  (226) 
30.962598667627816

>  <distance_score>  (226) 
1.5223213582836619

>  <path>  (226) 
/opt/xchem-fragalysis-2/maxwin/BulkDock/SCRATCH/505735/C4005-P140/C4005-P140.minimised.mol

>  <scratch_subdir>  (226) 
/opt/xchem-fragalysis-2/maxwin/BulkDock/SCRATCH/505735/C4005-P140

>  <fragmenstein_runtime>  (226) 
10.308821678161621

>  <fragmenstein_outcome>  (226) 
too moved

>  <fragmenstein_mode>  (226) 
expansion

>  <fragmenstein_error>  (226) 


$$$$
C4005-P129
     RDKit          3D

 52 54  0  0  0  0  0  0  0  0999 V2000
    1.9308   -5.0925   29.8472 C   0  0  0  0  0  0  0  0  0  0  0  0
    1.7907   -4.6437   31.2796 N   0  0  0  0  0  0  0  0  0  0  0  0
    2.7505   -3.5882   30.8141 C   0  0  0  0  0  0  0  0  0  0  0  0
    3.1072   -2.7851   32.0640 C   0  0  0  0  0  0  0  0  0  0  0  0
    4.1643   -3.1948   32.8875 C   0  0  0  0  0  0  0  0  0  0  0  0
    4.4634   -2.4901   34.0529 C   0  0  0  0  0  0  0  0  0  0  0  0
    3.7019   -1.3815   34.4151 C   0  0  0  0  0  0  0  0  0  0  0  0
    2.6345   -0.9805   33.6161 C   0  0  0  0  0  0  0  0  0  0  0  0
    2.3349   -1.6801   32.4475 C   0  0  0  0  0  0  0  0  0  0  0  0
    0.4200   -4.5575   31.6338 C   0  0  0  0  0  0  0  0  0  0  0  0
   -0.3488   -3.6361   31.5670 O   0  0  0  0  0  0  0  0  0  0  0  0
   -0.0547   -5.8225   32.2769 C   0  0  0  0  0  0  0  0  0  0  0  0
   -0.6390   -6.7186   31.4831 C   0  0  0  0  0  0  0  0  0  0  0  0
   -1.2327   -7.9085   32.0898 C   0  0  0  0  0  0  0  0  0  0  0  0
   -1.6651   -8.7891   31.3562 O   0  0  0  0  0  0  0  0  0  0  0  0
   -1.2722   -7.9353   33.4512 N   0  0  0  0  0  0  0  0  0  0  0  0
   -0.6625   -7.0336   34.2774 C   0  0  0  0  0  0  0  0  0  0  0  0
   -0.6833   -7.1835   35.4966 O   0  0  0  0  0  0  0  0  0  0  0  0
   -0.0192   -5.9794   33.6502 N   0  0  0  0  0  0  0  0  0  0  0  0
    0.7875   -5.1158   34.5091 C   0  0  0  0  0  0  0  0  0  0  0  0
    2.0795   -5.8926   34.9077 C   0  0  0  0  0  0  0  0  0  0  0  0
    2.5297   -6.7253   34.1692 O   0  0  0  0  0  0  0  0  0  0  0  0
    2.5182   -5.4519   36.2028 N   0  0  0  0  0  0  0  0  0  0  0  0
    3.5701   -5.9328   37.0559 C   0  0  0  0  0  0  0  0  0  0  0  0
    3.0307   -6.6046   38.2942 C   0  0  0  0  0  0  0  0  0  0  0  0
    3.6925   -6.4471   39.5213 C   0  0  0  0  0  0  0  0  0  0  0  0
    3.2172   -7.0772   40.6746 C   0  0  0  0  0  0  0  0  0  0  0  0
    2.0792   -7.8780   40.6154 C   0  0  0  0  0  0  0  0  0  0  0  0
    1.4225   -8.0575   39.4016 C   0  0  0  0  0  0  0  0  0  0  0  0
    1.9001   -7.4356   38.2470 C   0  0  0  0  0  0  0  0  0  0  0  0
    1.3393   -6.0112   29.7573 H   0  0  0  0  0  0  0  0  0  0  0  0
    2.9338   -5.4383   29.5556 H   0  0  0  0  0  0  0  0  0  0  0  0
    1.4604   -4.4153   29.1169 H   0  0  0  0  0  0  0  0  0  0  0  0
    3.7222   -3.9527   30.4429 H   0  0  0  0  0  0  0  0  0  0  0  0
    2.2952   -2.8651   30.1177 H   0  0  0  0  0  0  0  0  0  0  0  0
    4.7539   -4.0725   32.6321 H   0  0  0  0  0  0  0  0  0  0  0  0
    5.2887   -2.8106   34.6836 H   0  0  0  0  0  0  0  0  0  0  0  0
    3.9353   -0.8333   35.3242 H   0  0  0  0  0  0  0  0  0  0  0  0
    2.0296   -0.1239   33.9034 H   0  0  0  0  0  0  0  0  0  0  0  0
    1.4826   -1.3685   31.8452 H   0  0  0  0  0  0  0  0  0  0  0  0
   -0.7147   -6.6227   30.4109 H   0  0  0  0  0  0  0  0  0  0  0  0
   -1.6233   -8.7697   33.9139 H   0  0  0  0  0  0  0  0  0  0  0  0
    0.1962   -4.8698   35.3984 H   0  0  0  0  0  0  0  0  0  0  0  0
    1.0706   -4.1812   34.0216 H   0  0  0  0  0  0  0  0  0  0  0  0
    1.8467   -4.7877   36.5706 H   0  0  0  0  0  0  0  0  0  0  0  0
    4.1901   -6.6398   36.4952 H   0  0  0  0  0  0  0  0  0  0  0  0
    4.1770   -5.0615   37.3227 H   0  0  0  0  0  0  0  0  0  0  0  0
    4.5836   -5.8273   39.5908 H   0  0  0  0  0  0  0  0  0  0  0  0
    3.7346   -6.9407   41.6206 H   0  0  0  0  0  0  0  0  0  0  0  0
    1.7048   -8.3658   41.5109 H   0  0  0  0  0  0  0  0  0  0  0  0
    0.5384   -8.6886   39.3424 H   0  0  0  0  0  0  0  0  0  0  0  0
    1.3700   -7.6114   37.3119 H   0  0  0  0  0  0  0  0  0  0  0  0
  1  2  1  0
  2  3  1  0
  3  4  1  0
  4  5  2  0
  5  6  1  0
  6  7  2  0
  7  8  1  0
  8  9  2  0
  2 10  1  0
 10 11  2  0
 10 12  1  0
 12 13  2  0
 13 14  1  0
 14 15  2  0
 14 16  1  0
 16 17  1  0
 17 18  2  0
 17 19  1  0
 19 20  1  0
 20 21  1  0
 21 22  2  0
 21 23  1  0
 23 24  1  0
 24 25  1  0
 25 26  2  0
 26 27  1  0
 27 28  2  0
 28 29  1  0
 29 30  2  0
  9  4  1  0
 19 12  1  0
 30 25  1  0
  1 31  1  0
  1 32  1  0
  1 33  1  0
  3 34  1  0
  3 35  1  0
  5 36  1  0
  6 37  1  0
  7 38  1  0
  8 39  1  0
  9 40  1  0
 13 41  1  0
 16 42  1  0
 20 43  1  0
 20 44  1  0
 23 45  1  0
 24 46  1  0
 24 47  1  0
 26 48  1  0
 27 49  1  0
 28 50  1  0
 29 51  1  0
 30 52  1  0
M  END
>  <Energy>  (227) 
0.68179592720082427

>  <compound_id>  (227) 
4005

>  <target_id>  (227) 
1

>  <reference_id>  (227) 
129

>  <inspiration_ids>  (227) 
[140, 129]

>  <energy_score>  (227) 
25.49003659046757

>  <distance_score>  (227) 
1.4805858503229572

>  <path>  (227) 
/opt/xchem-fragalysis-2/maxwin/BulkDock/SCRATCH/505735/C4005-P129/C4005-P129.minimised.mol

>  <scratch_subdir>  (227) 
/opt/xchem-fragalysis-2/maxwin/BulkDock/SCRATCH/505735/C4005-P129

>  <fragmenstein_runtime>  (227) 
11.151413202285767

>  <fragmenstein_outcome>  (227) 
too moved

>  <fragmenstein_mode>  (227) 
expansion

>  <fragmenstein_error>  (227) 


$$$$
C4005-P140
     RDKit          3D

 52 54  0  0  0  0  0  0  0  0999 V2000
   -0.3997   -2.8134   29.3758 C   0  0  0  0  0  0  0  0  0  0  0  0
   -0.5208   -2.4327   30.8354 N   0  0  0  0  0  0  0  0  0  0  0  0
   -0.8940   -1.1025   30.2295 C   0  0  0  0  0  0  0  0  0  0  0  0
    0.1449   -0.1030   29.7898 C   0  0  0  0  0  0  0  0  0  0  0  0
    1.2618    0.1868   30.5768 C   0  0  0  0  0  0  0  0  0  0  0  0
    2.1416    1.1971   30.1877 C   0  0  0  0  0  0  0  0  0  0  0  0
    1.9107    1.9218   29.0172 C   0  0  0  0  0  0  0  0  0  0  0  0
    0.8024    1.6363   28.2249 C   0  0  0  0  0  0  0  0  0  0  0  0
   -0.0774    0.6277   28.6079 C   0  0  0  0  0  0  0  0  0  0  0  0
   -1.3028   -3.3805   31.5239 C   0  0  0  0  0  0  0  0  0  0  0  0
   -2.4895   -3.4157   31.7287 O   0  0  0  0  0  0  0  0  0  0  0  0
   -0.5673   -4.5661   32.1391 C   0  0  0  0  0  0  0  0  0  0  0  0
   -0.4937   -5.6280   31.3246 C   0  0  0  0  0  0  0  0  0  0  0  0
   -0.6137   -6.9735   31.8998 C   0  0  0  0  0  0  0  0  0  0  0  0
   -0.8325   -7.9332   31.1685 O   0  0  0  0  0  0  0  0  0  0  0  0
   -0.5656   -7.0587   33.2537 N   0  0  0  0  0  0  0  0  0  0  0  0
   -0.6240   -5.9925   34.1024 C   0  0  0  0  0  0  0  0  0  0  0  0
   -0.7477   -6.1820   35.3121 O   0  0  0  0  0  0  0  0  0  0  0  0
   -0.5573   -4.7345   33.5232 N   0  0  0  0  0  0  0  0  0  0  0  0
   -0.6338   -3.5810   34.4248 C   0  0  0  0  0  0  0  0  0  0  0  0
    0.7534   -3.3078   35.0574 C   0  0  0  0  0  0  0  0  0  0  0  0
    1.4337   -2.4306   34.6060 O   0  0  0  0  0  0  0  0  0  0  0  0
    0.9805   -4.1959   36.1636 N   0  0  0  0  0  0  0  0  0  0  0  0
    2.1305   -4.3725   37.0127 C   0  0  0  0  0  0  0  0  0  0  0  0
    2.0705   -5.6282   37.8464 C   0  0  0  0  0  0  0  0  0  0  0  0
    3.2011   -6.4520   37.9657 C   0  0  0  0  0  0  0  0  0  0  0  0
    3.1656   -7.6033   38.7569 C   0  0  0  0  0  0  0  0  0  0  0  0
    2.0019   -7.9438   39.4412 C   0  0  0  0  0  0  0  0  0  0  0  0
    0.8784   -7.1276   39.3481 C   0  0  0  0  0  0  0  0  0  0  0  0
    0.9145   -5.9720   38.5657 C   0  0  0  0  0  0  0  0  0  0  0  0
    0.3324   -2.2555   28.7772 H   0  0  0  0  0  0  0  0  0  0  0  0
   -1.3710   -2.9503   28.8802 H   0  0  0  0  0  0  0  0  0  0  0  0
    0.0426   -3.8154   29.3658 H   0  0  0  0  0  0  0  0  0  0  0  0
   -1.7868   -1.1300   29.5781 H   0  0  0  0  0  0  0  0  0  0  0  0
   -1.3443   -0.6039   31.1061 H   0  0  0  0  0  0  0  0  0  0  0  0
    1.4395   -0.3547   31.5042 H   0  0  0  0  0  0  0  0  0  0  0  0
    3.0051    1.4294   30.8062 H   0  0  0  0  0  0  0  0  0  0  0  0
    2.5945    2.7159   28.7276 H   0  0  0  0  0  0  0  0  0  0  0  0
    0.6158    2.2080   27.3198 H   0  0  0  0  0  0  0  0  0  0  0  0
   -0.9490    0.4269   27.9857 H   0  0  0  0  0  0  0  0  0  0  0  0
   -0.6212   -5.5901   30.2543 H   0  0  0  0  0  0  0  0  0  0  0  0
   -0.7580   -7.9619   33.6702 H   0  0  0  0  0  0  0  0  0  0  0  0
   -1.3582   -3.7680   35.2256 H   0  0  0  0  0  0  0  0  0  0  0  0
   -0.9583   -2.6734   33.9069 H   0  0  0  0  0  0  0  0  0  0  0  0
    0.2182   -4.8749   36.2073 H   0  0  0  0  0  0  0  0  0  0  0  0
    2.2025   -3.4961   37.6658 H   0  0  0  0  0  0  0  0  0  0  0  0
    3.0126   -4.3682   36.3628 H   0  0  0  0  0  0  0  0  0  0  0  0
    4.1220   -6.2008   37.4445 H   0  0  0  0  0  0  0  0  0  0  0  0
    4.0434   -8.2387   38.8381 H   0  0  0  0  0  0  0  0  0  0  0  0
    1.9602   -8.8514   40.0401 H   0  0  0  0  0  0  0  0  0  0  0  0
   -0.0261   -7.3983   39.8866 H   0  0  0  0  0  0  0  0  0  0  0  0
    0.0282   -5.3425   38.5232 H   0  0  0  0  0  0  0  0  0  0  0  0
  1  2  1  0
  2  3  1  0
  3  4  1  0
  4  5  2  0
  5  6  1  0
  6  7  2  0
  7  8  1  0
  8  9  2  0
  2 10  1  0
 10 11  2  0
 10 12  1  0
 12 13  2  0
 13 14  1  0
 14 15  2  0
 14 16  1  0
 16 17  1  0
 17 18  2  0
 17 19  1  0
 19 20  1  0
 20 21  1  0
 21 22  2  0
 21 23  1  0
 23 24  1  0
 24 25  1  0
 25 26  2  0
 26 27  1  0
 27 28  2  0
 28 29  1  0
 29 30  2  0
  9  4  1  0
 19 12  1  0
 30 25  1  0
  1 31  1  0
  1 32  1  0
  1 33  1  0
  3 34  1  0
  3 35  1  0
  5 36  1  0
  6 37  1  0
  7 38  1  0
  8 39  1  0
  9 40  1  0
 13 41  1  0
 16 42  1  0
 20 43  1  0
 20 44  1  0
 23 45  1  0
 24 46  1  0
 24 47  1  0
 26 48  1  0
 27 49  1  0
 28 50  1  0
 29 51  1  0
 30 52  1  0
M  END
>  <Energy>  (228) 
17.905133729390279

>  <compound_id>  (228) 
4005

>  <target_id>  (228) 
1

>  <reference_id>  (228) 
140

>  <inspiration_ids>  (228) 
[140, 130]

>  <energy_score>  (228) 
40.12399388355922

>  <distance_score>  (228) 
1.9678081799351732

>  <path>  (228) 
/opt/xchem-fragalysis-2/maxwin/BulkDock/SCRATCH/505735/C4005-P140/C4005-P140.minimised.mol

>  <scratch_subdir>  (228) 
/opt/xchem-fragalysis-2/maxwin/BulkDock/SCRATCH/505735/C4005-P140

>  <fragmenstein_runtime>  (228) 
10.139423131942749

>  <fragmenstein_outcome>  (228) 
too moved

>  <fragmenstein_mode>  (228) 
expansion

>  <fragmenstein_error>  (228) 


$$$$
C4005-P130
     RDKit          3D

 52 54  0  0  0  0  0  0  0  0999 V2000
   -0.4435   -3.0002   29.3613 C   0  0  0  0  0  0  0  0  0  0  0  0
   -0.5221   -2.6458   30.8305 N   0  0  0  0  0  0  0  0  0  0  0  0
   -0.9011   -1.3013   30.2591 C   0  0  0  0  0  0  0  0  0  0  0  0
    0.1287   -0.3005   29.8001 C   0  0  0  0  0  0  0  0  0  0  0  0
    1.2815   -0.0400   30.5445 C   0  0  0  0  0  0  0  0  0  0  0  0
    2.1523    0.9736   30.1434 C   0  0  0  0  0  0  0  0  0  0  0  0
    1.8772    1.7313   29.0037 C   0  0  0  0  0  0  0  0  0  0  0  0
    0.7330    1.4753   28.2537 C   0  0  0  0  0  0  0  0  0  0  0  0
   -0.1378    0.4631   28.6484 C   0  0  0  0  0  0  0  0  0  0  0  0
   -1.2927   -3.6002   31.5223 C   0  0  0  0  0  0  0  0  0  0  0  0
   -2.4740   -3.6302   31.7587 O   0  0  0  0  0  0  0  0  0  0  0  0
   -0.5524   -4.8052   32.0958 C   0  0  0  0  0  0  0  0  0  0  0  0
   -0.5160   -5.8586   31.2668 C   0  0  0  0  0  0  0  0  0  0  0  0
   -0.6305   -7.2111   31.8292 C   0  0  0  0  0  0  0  0  0  0  0  0
   -0.8626   -8.1690   31.0980 O   0  0  0  0  0  0  0  0  0  0  0  0
   -0.5618   -7.3104   33.1815 N   0  0  0  0  0  0  0  0  0  0  0  0
   -0.5805   -6.2536   34.0441 C   0  0  0  0  0  0  0  0  0  0  0  0
   -0.6704   -6.4649   35.2528 O   0  0  0  0  0  0  0  0  0  0  0  0
   -0.5090   -4.9923   33.4767 N   0  0  0  0  0  0  0  0  0  0  0  0
   -0.4773   -3.8503   34.3945 C   0  0  0  0  0  0  0  0  0  0  0  0
    0.9806   -3.6600   34.8834 C   0  0  0  0  0  0  0  0  0  0  0  0
    1.6766   -2.8613   34.3231 O   0  0  0  0  0  0  0  0  0  0  0  0
    1.2677   -4.5555   35.9708 N   0  0  0  0  0  0  0  0  0  0  0  0
    2.4992   -4.8393   36.6602 C   0  0  0  0  0  0  0  0  0  0  0  0
    2.3280   -5.7388   37.8577 C   0  0  0  0  0  0  0  0  0  0  0  0
    2.9205   -5.3981   39.0838 C   0  0  0  0  0  0  0  0  0  0  0  0
    2.7943   -6.2327   40.1979 C   0  0  0  0  0  0  0  0  0  0  0  0
    2.0760   -7.4206   40.1014 C   0  0  0  0  0  0  0  0  0  0  0  0
    1.4930   -7.7784   38.8895 C   0  0  0  0  0  0  0  0  0  0  0  0
    1.6274   -6.9513   37.7722 C   0  0  0  0  0  0  0  0  0  0  0  0
   -1.4285   -3.1112   28.8870 H   0  0  0  0  0  0  0  0  0  0  0  0
   -0.0192   -4.0094   29.3210 H   0  0  0  0  0  0  0  0  0  0  0  0
    0.2833   -2.4415   28.7570 H   0  0  0  0  0  0  0  0  0  0  0  0
   -1.8177   -1.3112   29.6403 H   0  0  0  0  0  0  0  0  0  0  0  0
   -1.3156   -0.8138   31.1594 H   0  0  0  0  0  0  0  0  0  0  0  0
    1.4953   -0.6076   31.4484 H   0  0  0  0  0  0  0  0  0  0  0  0
    3.0443    1.1825   30.7292 H   0  0  0  0  0  0  0  0  0  0  0  0
    2.5544    2.5277   28.7056 H   0  0  0  0  0  0  0  0  0  0  0  0
    0.5116    2.0728   27.3735 H   0  0  0  0  0  0  0  0  0  0  0  0
   -1.0375    0.2856   28.0602 H   0  0  0  0  0  0  0  0  0  0  0  0
   -0.6685   -5.8046   30.2005 H   0  0  0  0  0  0  0  0  0  0  0  0
   -0.7468   -8.2152   33.5944 H   0  0  0  0  0  0  0  0  0  0  0  0
   -1.1368   -4.0228   35.2521 H   0  0  0  0  0  0  0  0  0  0  0  0
   -0.8078   -2.9244   33.9142 H   0  0  0  0  0  0  0  0  0  0  0  0
    0.4086   -5.0327   36.2442 H   0  0  0  0  0  0  0  0  0  0  0  0
    2.9374   -3.8754   36.9420 H   0  0  0  0  0  0  0  0  0  0  0  0
    3.1839   -5.3054   35.9430 H   0  0  0  0  0  0  0  0  0  0  0  0
    3.4846   -4.4730   39.1840 H   0  0  0  0  0  0  0  0  0  0  0  0
    3.2539   -5.9529   41.1424 H   0  0  0  0  0  0  0  0  0  0  0  0
    1.9711   -8.0723   40.9652 H   0  0  0  0  0  0  0  0  0  0  0  0
    0.9361   -8.7092   38.8179 H   0  0  0  0  0  0  0  0  0  0  0  0
    1.1736   -7.2656   36.8365 H   0  0  0  0  0  0  0  0  0  0  0  0
  1  2  1  0
  2  3  1  0
  3  4  1  0
  4  5  2  0
  5  6  1  0
  6  7  2  0
  7  8  1  0
  8  9  2  0
  2 10  1  0
 10 11  2  0
 10 12  1  0
 12 13  2  0
 13 14  1  0
 14 15  2  0
 14 16  1  0
 16 17  1  0
 17 18  2  0
 17 19  1  0
 19 20  1  0
 20 21  1  0
 21 22  2  0
 21 23  1  0
 23 24  1  0
 24 25  1  0
 25 26  2  0
 26 27  1  0
 27 28  2  0
 28 29  1  0
 29 30  2  0
  9  4  1  0
 19 12  1  0
 30 25  1  0
  1 31  1  0
  1 32  1  0
  1 33  1  0
  3 34  1  0
  3 35  1  0
  5 36  1  0
  6 37  1  0
  7 38  1  0
  8 39  1  0
  9 40  1  0
 13 41  1  0
 16 42  1  0
 20 43  1  0
 20 44  1  0
 23 45  1  0
 24 46  1  0
 24 47  1  0
 26 48  1  0
 27 49  1  0
 28 50  1  0
 29 51  1  0
 30 52  1  0
M  END
>  <Energy>  (229) 
18.302243220015402

>  <compound_id>  (229) 
4005

>  <target_id>  (229) 
1

>  <reference_id>  (229) 
130

>  <inspiration_ids>  (229) 
[140, 130]

>  <energy_score>  (229) 
40.5211033741839

>  <distance_score>  (229) 
1.8180776166517933

>  <path>  (229) 
/opt/xchem-fragalysis-2/maxwin/BulkDock/SCRATCH/505735/C4005-P130/C4005-P130.minimised.mol

>  <scratch_subdir>  (229) 
/opt/xchem-fragalysis-2/maxwin/BulkDock/SCRATCH/505735/C4005-P130

>  <fragmenstein_runtime>  (229) 
9.397689580917358

>  <fragmenstein_outcome>  (229) 
too moved

>  <fragmenstein_mode>  (229) 
expansion

>  <fragmenstein_error>  (229) 


$$$$
C4007-P140
     RDKit          3D

 63 66  0  0  0  0  0  0  0  0999 V2000
    2.4696   -7.0368   34.3614 O   0  0  0  0  0  0  0  0  0  0  0  0
    2.2431   -6.0846   35.0590 C   0  0  0  0  0  0  0  0  0  0  0  0
    1.0841   -5.1037   34.6951 C   0  0  0  0  0  0  0  0  0  0  0  0
    0.1759   -5.7508   33.7464 N   0  0  0  0  0  0  0  0  0  0  0  0
    0.1157   -5.4103   32.3992 C   0  0  0  0  0  0  0  0  0  0  0  0
    0.6005   -4.0612   31.8827 C   0  0  0  0  0  0  0  0  0  0  0  0
    0.5283   -3.1100   32.6120 O   0  0  0  0  0  0  0  0  0  0  0  0
    0.9962   -4.1537   30.5113 N   0  0  0  0  0  0  0  0  0  0  0  0
    1.3409   -3.0664   29.5026 C   0  0  0  0  0  0  0  0  0  0  0  0
    2.5802   -2.7384   28.6463 C   0  0  0  0  0  0  0  0  0  0  0  0
    3.7097   -2.3910   29.5863 C   0  0  0  0  0  0  0  0  0  0  0  0
    3.6650   -3.4359   30.6909 C   0  0  0  0  0  0  0  0  0  0  0  0
    3.7700   -2.9438   32.1157 C   0  0  0  0  0  0  0  0  0  0  0  0
    4.4979   -3.7039   33.0452 C   0  0  0  0  0  0  0  0  0  0  0  0
    4.5616   -3.3314   34.3862 C   0  0  0  0  0  0  0  0  0  0  0  0
    3.8937   -2.1899   34.8338 C   0  0  0  0  0  0  0  0  0  0  0  0
    3.8390   -1.8776   36.2979 C   0  0  0  0  0  0  0  0  0  0  0  0
    2.7193   -2.5686   36.8480 O   0  0  0  0  0  0  0  0  0  0  0  0
    3.1935   -1.4090   33.9097 C   0  0  0  0  0  0  0  0  0  0  0  0
    3.1374   -1.7802   32.5645 C   0  0  0  0  0  0  0  0  0  0  0  0
    2.4829   -4.4190   30.4190 C   0  0  0  0  0  0  0  0  0  0  0  0
   -0.5134   -6.2063   31.5260 C   0  0  0  0  0  0  0  0  0  0  0  0
   -1.1486   -7.4356   31.9996 C   0  0  0  0  0  0  0  0  0  0  0  0
   -1.5855   -8.2479   31.1924 O   0  0  0  0  0  0  0  0  0  0  0  0
   -1.2359   -7.5695   33.3498 N   0  0  0  0  0  0  0  0  0  0  0  0
   -0.5560   -6.8130   34.2606 C   0  0  0  0  0  0  0  0  0  0  0  0
   -0.5862   -7.1130   35.4526 O   0  0  0  0  0  0  0  0  0  0  0  0
    2.8612   -5.6485   36.2811 N   0  0  0  0  0  0  0  0  0  0  0  0
    3.8724   -6.2608   37.0963 C   0  0  0  0  0  0  0  0  0  0  0  0
    3.3204   -6.7386   38.4143 C   0  0  0  0  0  0  0  0  0  0  0  0
    4.0521   -6.5423   39.5952 C   0  0  0  0  0  0  0  0  0  0  0  0
    3.5719   -7.0152   40.8190 C   0  0  0  0  0  0  0  0  0  0  0  0
    2.3588   -7.6961   40.8772 C   0  0  0  0  0  0  0  0  0  0  0  0
    1.6263   -7.9054   39.7128 C   0  0  0  0  0  0  0  0  0  0  0  0
    2.1046   -7.4357   38.4886 C   0  0  0  0  0  0  0  0  0  0  0  0
    1.5435   -4.2004   34.3009 H   0  0  0  0  0  0  0  0  0  0  0  0
    0.5156   -4.8491   35.5971 H   0  0  0  0  0  0  0  0  0  0  0  0
    0.5240   -3.1884   28.7754 H   0  0  0  0  0  0  0  0  0  0  0  0
    1.0742   -2.1356   30.0287 H   0  0  0  0  0  0  0  0  0  0  0  0
    2.3677   -1.8763   28.0045 H   0  0  0  0  0  0  0  0  0  0  0  0
    2.8442   -3.5657   27.9766 H   0  0  0  0  0  0  0  0  0  0  0  0
    4.6675   -2.4171   29.0535 H   0  0  0  0  0  0  0  0  0  0  0  0
    3.5933   -1.3667   29.9529 H   0  0  0  0  0  0  0  0  0  0  0  0
    4.5726   -4.0389   30.5284 H   0  0  0  0  0  0  0  0  0  0  0  0
    5.0172   -4.6086   32.7400 H   0  0  0  0  0  0  0  0  0  0  0  0
    5.1073   -3.9581   35.0881 H   0  0  0  0  0  0  0  0  0  0  0  0
    3.7310   -0.8038   36.4839 H   0  0  0  0  0  0  0  0  0  0  0  0
    4.7455   -2.2163   36.8100 H   0  0  0  0  0  0  0  0  0  0  0  0
    1.9309   -2.1396   36.4683 H   0  0  0  0  0  0  0  0  0  0  0  0
    2.6469   -0.5256   34.2334 H   0  0  0  0  0  0  0  0  0  0  0  0
    2.5340   -1.1721   31.8947 H   0  0  0  0  0  0  0  0  0  0  0  0
    2.6572   -5.0131   29.5032 H   0  0  0  0  0  0  0  0  0  0  0  0
    2.6273   -5.2012   31.1825 H   0  0  0  0  0  0  0  0  0  0  0  0
   -0.6070   -5.9962   30.4700 H   0  0  0  0  0  0  0  0  0  0  0  0
   -1.6227   -8.4297   33.7218 H   0  0  0  0  0  0  0  0  0  0  0  0
    2.3542   -4.8409   36.6399 H   0  0  0  0  0  0  0  0  0  0  0  0
    4.6477   -5.5038   37.2524 H   0  0  0  0  0  0  0  0  0  0  0  0
    4.3085   -7.1051   36.5523 H   0  0  0  0  0  0  0  0  0  0  0  0
    5.0053   -6.0195   39.5725 H   0  0  0  0  0  0  0  0  0  0  0  0
    4.1472   -6.8575   41.7272 H   0  0  0  0  0  0  0  0  0  0  0  0
    1.9862   -8.0760   41.8246 H   0  0  0  0  0  0  0  0  0  0  0  0
    0.6892   -8.4566   39.7523 H   0  0  0  0  0  0  0  0  0  0  0  0
    1.5169   -7.6336   37.5940 H   0  0  0  0  0  0  0  0  0  0  0  0
  1  2  2  0
  2  3  1  0
  3  4  1  0
  4  5  1  0
  5  6  1  0
  6  7  2  0
  6  8  1  0
  8  9  1  0
  9 10  1  0
 10 11  1  0
 11 12  1  0
 12 13  1  0
 13 14  2  0
 14 15  1  0
 15 16  2  0
 16 17  1  0
 17 18  1  0
 16 19  1  0
 19 20  2  0
 12 21  1  0
  5 22  2  0
 22 23  1  0
 23 24  2  0
 23 25  1  0
 25 26  1  0
 26 27  2  0
  2 28  1  0
 28 29  1  0
 29 30  1  0
 30 31  2  0
 31 32  1  0
 32 33  2  0
 33 34  1  0
 34 35  2  0
 26  4  1  0
 35 30  1  0
 21  8  1  0
 20 13  1  0
  3 36  1  0
  3 37  1  0
  9 38  1  0
  9 39  1  0
 10 40  1  0
 10 41  1  0
 11 42  1  0
 11 43  1  0
 12 44  1  0
 14 45  1  0
 15 46  1  0
 17 47  1  0
 17 48  1  0
 18 49  1  0
 19 50  1  0
 20 51  1  0
 21 52  1  0
 21 53  1  0
 22 54  1  0
 25 55  1  0
 28 56  1  0
 29 57  1  0
 29 58  1  0
 31 59  1  0
 32 60  1  0
 33 61  1  0
 34 62  1  0
 35 63  1  0
M  END
>  <Energy>  (230) 
42.406116564152306

>  <compound_id>  (230) 
4007

>  <target_id>  (230) 
1

>  <reference_id>  (230) 
140

>  <inspiration_ids>  (230) 
[140, 132]

>  <energy_score>  (230) 
49.03404302360479

>  <distance_score>  (230) 
1.2912011047356902

>  <path>  (230) 
/opt/xchem-fragalysis-2/maxwin/BulkDock/SCRATCH/505735/C4007-P140/C4007-P140.minimised.mol

>  <scratch_subdir>  (230) 
/opt/xchem-fragalysis-2/maxwin/BulkDock/SCRATCH/505735/C4007-P140

>  <fragmenstein_runtime>  (230) 
17.597880125045776

>  <fragmenstein_outcome>  (230) 
too moved

>  <fragmenstein_mode>  (230) 
expansion

>  <fragmenstein_error>  (230) 


$$$$
C4007-P132
     RDKit          3D

 63 66  0  0  0  0  0  0  0  0999 V2000
    2.3428   -7.2092   34.2182 O   0  0  0  0  0  0  0  0  0  0  0  0
    2.1427   -6.2386   34.8987 C   0  0  0  0  0  0  0  0  0  0  0  0
    0.9708   -5.2637   34.5340 C   0  0  0  0  0  0  0  0  0  0  0  0
    0.0432   -5.9844   33.6639 N   0  0  0  0  0  0  0  0  0  0  0  0
   -0.0115   -5.7677   32.2947 C   0  0  0  0  0  0  0  0  0  0  0  0
    0.3055   -4.4241   31.6469 C   0  0  0  0  0  0  0  0  0  0  0  0
    0.0553   -3.4120   32.2431 O   0  0  0  0  0  0  0  0  0  0  0  0
    0.7941   -4.6237   30.3197 N   0  0  0  0  0  0  0  0  0  0  0  0
    1.0434   -3.6441   29.2079 C   0  0  0  0  0  0  0  0  0  0  0  0
    1.4993   -2.2251   29.5237 C   0  0  0  0  0  0  0  0  0  0  0  0
    2.9797   -2.2652   29.7984 C   0  0  0  0  0  0  0  0  0  0  0  0
    3.2724   -3.4700   30.6851 C   0  0  0  0  0  0  0  0  0  0  0  0
    3.4103   -3.1565   32.1656 C   0  0  0  0  0  0  0  0  0  0  0  0
    4.3071   -3.9081   32.9421 C   0  0  0  0  0  0  0  0  0  0  0  0
    4.5100   -3.6184   34.2937 C   0  0  0  0  0  0  0  0  0  0  0  0
    3.8109   -2.5765   34.9090 C   0  0  0  0  0  0  0  0  0  0  0  0
    3.9617   -2.3052   36.3752 C   0  0  0  0  0  0  0  0  0  0  0  0
    2.9670   -3.0565   37.0648 O   0  0  0  0  0  0  0  0  0  0  0  0
    2.9124   -1.8285   34.1453 C   0  0  0  0  0  0  0  0  0  0  0  0
    2.7233   -2.1095   32.7910 C   0  0  0  0  0  0  0  0  0  0  0  0
    2.3333   -4.6750   30.3227 C   0  0  0  0  0  0  0  0  0  0  0  0
   -0.5896   -6.6687   31.4895 C   0  0  0  0  0  0  0  0  0  0  0  0
   -1.1715   -7.8789   32.0634 C   0  0  0  0  0  0  0  0  0  0  0  0
   -1.5583   -8.7792   31.3263 O   0  0  0  0  0  0  0  0  0  0  0  0
   -1.2778   -7.8965   33.4181 N   0  0  0  0  0  0  0  0  0  0  0  0
   -0.6330   -7.0398   34.2638 C   0  0  0  0  0  0  0  0  0  0  0  0
   -0.6378   -7.2633   35.4730 O   0  0  0  0  0  0  0  0  0  0  0  0
    2.7785   -5.7935   36.1044 N   0  0  0  0  0  0  0  0  0  0  0  0
    3.7822   -6.4115   36.9236 C   0  0  0  0  0  0  0  0  0  0  0  0
    3.2197   -6.9066   38.2313 C   0  0  0  0  0  0  0  0  0  0  0  0
    3.9262   -6.6993   39.4256 C   0  0  0  0  0  0  0  0  0  0  0  0
    3.4365   -7.1913   40.6381 C   0  0  0  0  0  0  0  0  0  0  0  0
    2.2402   -7.9037   40.6707 C   0  0  0  0  0  0  0  0  0  0  0  0
    1.5334   -8.1253   39.4924 C   0  0  0  0  0  0  0  0  0  0  0  0
    2.0203   -7.6341   38.2802 C   0  0  0  0  0  0  0  0  0  0  0  0
    1.3883   -4.3859   34.0487 H   0  0  0  0  0  0  0  0  0  0  0  0
    0.4359   -4.9611   35.4410 H   0  0  0  0  0  0  0  0  0  0  0  0
    1.5227   -4.0804   28.3160 H   0  0  0  0  0  0  0  0  0  0  0  0
    0.0121   -3.4981   28.8480 H   0  0  0  0  0  0  0  0  0  0  0  0
    0.9349   -1.8121   30.3634 H   0  0  0  0  0  0  0  0  0  0  0  0
    1.3080   -1.5708   28.6650 H   0  0  0  0  0  0  0  0  0  0  0  0
    3.4988   -2.4042   28.8398 H   0  0  0  0  0  0  0  0  0  0  0  0
    3.3455   -1.3169   30.2060 H   0  0  0  0  0  0  0  0  0  0  0  0
    4.2837   -3.7923   30.3898 H   0  0  0  0  0  0  0  0  0  0  0  0
    4.8763   -4.7214   32.4984 H   0  0  0  0  0  0  0  0  0  0  0  0
    5.2062   -4.2251   34.8682 H   0  0  0  0  0  0  0  0  0  0  0  0
    3.8258   -1.2403   36.5923 H   0  0  0  0  0  0  0  0  0  0  0  0
    4.9507   -2.6057   36.7363 H   0  0  0  0  0  0  0  0  0  0  0  0
    2.9927   -2.7595   37.9917 H   0  0  0  0  0  0  0  0  0  0  0  0
    2.3331   -1.0292   34.6036 H   0  0  0  0  0  0  0  0  0  0  0  0
    2.0053   -1.4987   32.2512 H   0  0  0  0  0  0  0  0  0  0  0  0
    2.6943   -5.1864   29.4118 H   0  0  0  0  0  0  0  0  0  0  0  0
    2.5448   -5.4365   31.0897 H   0  0  0  0  0  0  0  0  0  0  0  0
   -0.7014   -6.5499   30.4208 H   0  0  0  0  0  0  0  0  0  0  0  0
   -1.6224   -8.7424   33.8584 H   0  0  0  0  0  0  0  0  0  0  0  0
    2.2914   -4.9667   36.4513 H   0  0  0  0  0  0  0  0  0  0  0  0
    4.5567   -5.6570   37.0951 H   0  0  0  0  0  0  0  0  0  0  0  0
    4.2247   -7.2498   36.3752 H   0  0  0  0  0  0  0  0  0  0  0  0
    4.8688   -6.1572   39.4216 H   0  0  0  0  0  0  0  0  0  0  0  0
    3.9926   -7.0278   41.5573 H   0  0  0  0  0  0  0  0  0  0  0  0
    1.8618   -8.3004   41.6091 H   0  0  0  0  0  0  0  0  0  0  0  0
    0.6106   -8.7015   39.5126 H   0  0  0  0  0  0  0  0  0  0  0  0
    1.4532   -7.8370   37.3737 H   0  0  0  0  0  0  0  0  0  0  0  0
  1  2  2  0
  2  3  1  0
  3  4  1  0
  4  5  1  0
  5  6  1  0
  6  7  2  0
  6  8  1  0
  8  9  1  0
  9 10  1  0
 10 11  1  0
 11 12  1  0
 12 13  1  0
 13 14  2  0
 14 15  1  0
 15 16  2  0
 16 17  1  0
 17 18  1  0
 16 19  1  0
 19 20  2  0
 12 21  1  0
  5 22  2  0
 22 23  1  0
 23 24  2  0
 23 25  1  0
 25 26  1  0
 26 27  2  0
  2 28  1  0
 28 29  1  0
 29 30  1  0
 30 31  2  0
 31 32  1  0
 32 33  2  0
 33 34  1  0
 34 35  2  0
 26  4  1  0
 35 30  1  0
 21  8  1  0
 20 13  1  0
  3 36  1  0
  3 37  1  0
  9 38  1  0
  9 39  1  0
 10 40  1  0
 10 41  1  0
 11 42  1  0
 11 43  1  0
 12 44  1  0
 14 45  1  0
 15 46  1  0
 17 47  1  0
 17 48  1  0
 18 49  1  0
 19 50  1  0
 20 51  1  0
 21 52  1  0
 21 53  1  0
 22 54  1  0
 25 55  1  0
 28 56  1  0
 29 57  1  0
 29 58  1  0
 31 59  1  0
 32 60  1  0
 33 61  1  0
 34 62  1  0
 35 63  1  0
M  END
>  <Energy>  (231) 
25.31133924971278

>  <compound_id>  (231) 
4007

>  <target_id>  (231) 
1

>  <reference_id>  (231) 
132

>  <inspiration_ids>  (231) 
[140, 132]

>  <energy_score>  (231) 
31.93926570916227

>  <distance_score>  (231) 
1.2702860691439015

>  <path>  (231) 
/opt/xchem-fragalysis-2/maxwin/BulkDock/SCRATCH/505735/C4007-P132/C4007-P132.minimised.mol

>  <scratch_subdir>  (231) 
/opt/xchem-fragalysis-2/maxwin/BulkDock/SCRATCH/505735/C4007-P132

>  <fragmenstein_runtime>  (231) 
18.193976402282715

>  <fragmenstein_outcome>  (231) 
too moved

>  <fragmenstein_mode>  (231) 
expansion

>  <fragmenstein_error>  (231) 


$$$$
C4007-P140
     RDKit          3D

 63 66  0  0  0  0  0  0  0  0999 V2000
    2.4814   -6.9398   34.3542 O   0  0  0  0  0  0  0  0  0  0  0  0
    2.1183   -6.1273   35.1123 C   0  0  0  0  0  0  0  0  0  0  0  0
    0.9087   -5.1923   34.8553 C   0  0  0  0  0  0  0  0  0  0  0  0
    0.0793   -5.7795   33.8205 N   0  0  0  0  0  0  0  0  0  0  0  0
    0.2211   -5.5522   32.4517 C   0  0  0  0  0  0  0  0  0  0  0  0
    0.9810   -4.4492   31.7426 C   0  0  0  0  0  0  0  0  0  0  0  0
    0.9475   -4.3594   30.5121 O   0  0  0  0  0  0  0  0  0  0  0  0
    1.6339   -3.4658   32.4310 N   0  0  0  0  0  0  0  0  0  0  0  0
    3.0523   -3.5916   32.7241 C   0  0  0  0  0  0  0  0  0  0  0  0
    3.7391   -2.2788   32.3798 C   0  0  0  0  0  0  0  0  0  0  0  0
    3.1480   -1.0801   33.1349 C   0  0  0  0  0  0  0  0  0  0  0  0
    1.7890   -1.3829   33.7941 C   0  0  0  0  0  0  0  0  0  0  0  0
    1.0587   -0.1299   34.2379 C   0  0  0  0  0  0  0  0  0  0  0  0
    0.7271    0.0428   35.5895 C   0  0  0  0  0  0  0  0  0  0  0  0
    0.0549    1.1894   36.0202 C   0  0  0  0  0  0  0  0  0  0  0  0
   -0.3069    2.1858   35.1077 C   0  0  0  0  0  0  0  0  0  0  0  0
   -0.9995    3.4367   35.5759 C   0  0  0  0  0  0  0  0  0  0  0  0
   -0.0594    4.4706   35.8276 O   0  0  0  0  0  0  0  0  0  0  0  0
    0.0325    2.0237   33.7597 C   0  0  0  0  0  0  0  0  0  0  0  0
    0.6984    0.8740   33.3277 C   0  0  0  0  0  0  0  0  0  0  0  0
    0.9197   -2.2714   32.8840 C   0  0  0  0  0  0  0  0  0  0  0  0
   -0.4002   -6.3553   31.5729 C   0  0  0  0  0  0  0  0  0  0  0  0
   -1.2095   -7.4773   32.0355 C   0  0  0  0  0  0  0  0  0  0  0  0
   -1.7098   -8.2540   31.2320 O   0  0  0  0  0  0  0  0  0  0  0  0
   -1.3650   -7.5737   33.3781 N   0  0  0  0  0  0  0  0  0  0  0  0
   -0.7353   -6.8047   34.3052 C   0  0  0  0  0  0  0  0  0  0  0  0
   -0.8817   -7.0544   35.5014 O   0  0  0  0  0  0  0  0  0  0  0  0
    2.6387   -5.7709   36.5289 N   0  0  0  0  0  0  0  0  0  0  0  0
    3.6444   -6.3991   37.3378 C   0  0  0  0  0  0  0  0  0  0  0  0
    3.0466   -6.9623   38.6002 C   0  0  0  0  0  0  0  0  0  0  0  0
    3.8383   -7.0814   39.7506 C   0  0  0  0  0  0  0  0  0  0  0  0
    3.3117   -7.6290   40.9225 C   0  0  0  0  0  0  0  0  0  0  0  0
    1.9908   -8.0677   40.9580 C   0  0  0  0  0  0  0  0  0  0  0  0
    1.1972   -7.9673   39.8211 C   0  0  0  0  0  0  0  0  0  0  0  0
    1.7232   -7.4324   38.6463 C   0  0  0  0  0  0  0  0  0  0  0  0
    1.2404   -4.1902   34.6307 H   0  0  0  0  0  0  0  0  0  0  0  0
    0.3233   -5.1039   35.7791 H   0  0  0  0  0  0  0  0  0  0  0  0
    3.1957   -3.8274   33.7818 H   0  0  0  0  0  0  0  0  0  0  0  0
    3.4742   -4.4153   32.1391 H   0  0  0  0  0  0  0  0  0  0  0  0
    3.6396   -2.0955   31.3018 H   0  0  0  0  0  0  0  0  0  0  0  0
    4.8134   -2.3506   32.5837 H   0  0  0  0  0  0  0  0  0  0  0  0
    3.0829   -0.2373   32.4361 H   0  0  0  0  0  0  0  0  0  0  0  0
    3.8522   -0.7590   33.9138 H   0  0  0  0  0  0  0  0  0  0  0  0
    2.0119   -1.9695   34.6969 H   0  0  0  0  0  0  0  0  0  0  0  0
    0.9925   -0.7112   36.3275 H   0  0  0  0  0  0  0  0  0  0  0  0
   -0.1812    1.3022   37.0768 H   0  0  0  0  0  0  0  0  0  0  0  0
   -1.7119    3.7876   34.8220 H   0  0  0  0  0  0  0  0  0  0  0  0
   -1.5655    3.2507   36.4948 H   0  0  0  0  0  0  0  0  0  0  0  0
    0.8245    4.1356   35.5981 H   0  0  0  0  0  0  0  0  0  0  0  0
   -0.2142    2.7979   33.0355 H   0  0  0  0  0  0  0  0  0  0  0  0
    0.9396    0.7794   32.2704 H   0  0  0  0  0  0  0  0  0  0  0  0
    0.6139   -1.7295   31.9800 H   0  0  0  0  0  0  0  0  0  0  0  0
   -0.0053   -2.5794   33.3862 H   0  0  0  0  0  0  0  0  0  0  0  0
   -0.3389   -6.2476   30.4954 H   0  0  0  0  0  0  0  0  0  0  0  0
   -1.8296   -8.3981   33.7401 H   0  0  0  0  0  0  0  0  0  0  0  0
    2.1458   -4.9558   36.8756 H   0  0  0  0  0  0  0  0  0  0  0  0
    4.1141   -7.2001   36.7585 H   0  0  0  0  0  0  0  0  0  0  0  0
    4.3900   -5.6321   37.5696 H   0  0  0  0  0  0  0  0  0  0  0  0
    4.8754   -6.7538   39.7441 H   0  0  0  0  0  0  0  0  0  0  0  0
    3.9348   -7.7227   41.8080 H   0  0  0  0  0  0  0  0  0  0  0  0
    1.5840   -8.5128   41.8623 H   0  0  0  0  0  0  0  0  0  0  0  0
    0.1790   -8.3482   39.8371 H   0  0  0  0  0  0  0  0  0  0  0  0
    1.0851   -7.4153   37.7652 H   0  0  0  0  0  0  0  0  0  0  0  0
  1  2  2  0
  2  3  1  0
  3  4  1  0
  4  5  1  0
  5  6  1  0
  6  7  2  0
  6  8  1  0
  8  9  1  0
  9 10  1  0
 10 11  1  0
 11 12  1  0
 12 13  1  0
 13 14  2  0
 14 15  1  0
 15 16  2  0
 16 17  1  0
 17 18  1  0
 16 19  1  0
 19 20  2  0
 12 21  1  0
  5 22  2  0
 22 23  1  0
 23 24  2  0
 23 25  1  0
 25 26  1  0
 26 27  2  0
  2 28  1  0
 28 29  1  0
 29 30  1  0
 30 31  2  0
 31 32  1  0
 32 33  2  0
 33 34  1  0
 34 35  2  0
 26  4  1  0
 35 30  1  0
 21  8  1  0
 20 13  1  0
  3 36  1  0
  3 37  1  0
  9 38  1  0
  9 39  1  0
 10 40  1  0
 10 41  1  0
 11 42  1  0
 11 43  1  0
 12 44  1  0
 14 45  1  0
 15 46  1  0
 17 47  1  0
 17 48  1  0
 18 49  1  0
 19 50  1  0
 20 51  1  0
 21 52  1  0
 21 53  1  0
 22 54  1  0
 25 55  1  0
 28 56  1  0
 29 57  1  0
 29 58  1  0
 31 59  1  0
 32 60  1  0
 33 61  1  0
 34 62  1  0
 35 63  1  0
M  END
>  <Energy>  (232) 
-6.7623950851161068

>  <compound_id>  (232) 
4007

>  <target_id>  (232) 
1

>  <reference_id>  (232) 
140

>  <inspiration_ids>  (232) 
[140, 133]

>  <energy_score>  (232) 
-0.8284224257196655

>  <distance_score>  (232) 
1.4777387163810785

>  <path>  (232) 
/opt/xchem-fragalysis-2/maxwin/BulkDock/SCRATCH/505735/C4007-P140/C4007-P140.minimised.mol

>  <scratch_subdir>  (232) 
/opt/xchem-fragalysis-2/maxwin/BulkDock/SCRATCH/505735/C4007-P140

>  <fragmenstein_runtime>  (232) 
15.627120733261108

>  <fragmenstein_outcome>  (232) 
too moved

>  <fragmenstein_mode>  (232) 
expansion

>  <fragmenstein_error>  (232) 


$$$$
C4007-P133
     RDKit          3D

 63 66  0  0  0  0  0  0  0  0999 V2000
    3.8483   -4.8454   35.1141 O   0  0  0  0  0  0  0  0  0  0  0  0
    2.8517   -5.4200   35.3053 C   0  0  0  0  0  0  0  0  0  0  0  0
    2.1458   -6.1755   34.1665 C   0  0  0  0  0  0  0  0  0  0  0  0
    0.6877   -6.1239   33.9637 N   0  0  0  0  0  0  0  0  0  0  0  0
    0.2123   -5.5815   32.7817 C   0  0  0  0  0  0  0  0  0  0  0  0
    0.3148   -4.1247   32.4362 C   0  0  0  0  0  0  0  0  0  0  0  0
   -0.5685   -3.6011   31.7546 O   0  0  0  0  0  0  0  0  0  0  0  0
    1.3257   -3.3729   32.9617 N   0  0  0  0  0  0  0  0  0  0  0  0
    2.5477   -3.1564   32.2269 C   0  0  0  0  0  0  0  0  0  0  0  0
    2.5743   -1.6732   31.8742 C   0  0  0  0  0  0  0  0  0  0  0  0
    2.4402   -0.7755   33.1166 C   0  0  0  0  0  0  0  0  0  0  0  0
    1.4072   -1.2169   34.1828 C   0  0  0  0  0  0  0  0  0  0  0  0
    0.0135   -0.6091   34.1140 C   0  0  0  0  0  0  0  0  0  0  0  0
   -0.6043   -0.2133   35.3151 C   0  0  0  0  0  0  0  0  0  0  0  0
   -1.9582    0.1223   35.3532 C   0  0  0  0  0  0  0  0  0  0  0  0
   -2.7295    0.0646   34.1897 C   0  0  0  0  0  0  0  0  0  0  0  0
   -4.2021    0.3614   34.2360 C   0  0  0  0  0  0  0  0  0  0  0  0
   -4.4218    1.7685   34.1842 O   0  0  0  0  0  0  0  0  0  0  0  0
   -2.1043   -0.2667   32.9812 C   0  0  0  0  0  0  0  0  0  0  0  0
   -0.7461   -0.5968   32.9422 C   0  0  0  0  0  0  0  0  0  0  0  0
    1.2500   -2.7463   34.2721 C   0  0  0  0  0  0  0  0  0  0  0  0
   -0.6414   -6.2608   32.0102 C   0  0  0  0  0  0  0  0  0  0  0  0
   -1.1476   -7.5477   32.4825 C   0  0  0  0  0  0  0  0  0  0  0  0
   -1.6483   -8.3421   31.6974 O   0  0  0  0  0  0  0  0  0  0  0  0
   -1.0296   -7.7252   33.8324 N   0  0  0  0  0  0  0  0  0  0  0  0
   -0.0405   -7.1390   34.5727 C   0  0  0  0  0  0  0  0  0  0  0  0
    0.2413   -7.5330   35.6990 O   0  0  0  0  0  0  0  0  0  0  0  0
    2.0604   -5.6389   36.6067 N   0  0  0  0  0  0  0  0  0  0  0  0
    2.3738   -5.2803   37.9585 C   0  0  0  0  0  0  0  0  0  0  0  0
    2.3053   -6.4736   38.8676 C   0  0  0  0  0  0  0  0  0  0  0  0
    3.4190   -6.8827   39.6133 C   0  0  0  0  0  0  0  0  0  0  0  0
    3.3201   -7.9603   40.4952 C   0  0  0  0  0  0  0  0  0  0  0  0
    2.1122   -8.6413   40.6329 C   0  0  0  0  0  0  0  0  0  0  0  0
    1.0051   -8.2529   39.8847 C   0  0  0  0  0  0  0  0  0  0  0  0
    1.0996   -7.1752   39.0091 C   0  0  0  0  0  0  0  0  0  0  0  0
    2.4211   -7.2268   34.3211 H   0  0  0  0  0  0  0  0  0  0  0  0
    2.6367   -5.8813   33.2303 H   0  0  0  0  0  0  0  0  0  0  0  0
    3.4059   -3.4369   32.8446 H   0  0  0  0  0  0  0  0  0  0  0  0
    2.5552   -3.7656   31.3166 H   0  0  0  0  0  0  0  0  0  0  0  0
    1.7561   -1.4479   31.1801 H   0  0  0  0  0  0  0  0  0  0  0  0
    3.5049   -1.4331   31.3475 H   0  0  0  0  0  0  0  0  0  0  0  0
    2.2614    0.2614   32.8080 H   0  0  0  0  0  0  0  0  0  0  0  0
    3.4247   -0.7790   33.6055 H   0  0  0  0  0  0  0  0  0  0  0  0
    1.8238   -0.8792   35.1434 H   0  0  0  0  0  0  0  0  0  0  0  0
   -0.0456   -0.2186   36.2491 H   0  0  0  0  0  0  0  0  0  0  0  0
   -2.4138    0.3852   36.3051 H   0  0  0  0  0  0  0  0  0  0  0  0
   -4.7318   -0.1074   33.4002 H   0  0  0  0  0  0  0  0  0  0  0  0
   -4.6437   -0.0262   35.1604 H   0  0  0  0  0  0  0  0  0  0  0  0
   -3.6606    2.1820   34.6289 H   0  0  0  0  0  0  0  0  0  0  0  0
   -2.6790   -0.3070   32.0566 H   0  0  0  0  0  0  0  0  0  0  0  0
   -0.3217   -0.9170   31.9943 H   0  0  0  0  0  0  0  0  0  0  0  0
    0.3264   -3.0537   34.7773 H   0  0  0  0  0  0  0  0  0  0  0  0
    2.0843   -3.1167   34.8658 H   0  0  0  0  0  0  0  0  0  0  0  0
   -1.0360   -5.8783   31.0845 H   0  0  0  0  0  0  0  0  0  0  0  0
   -1.3668   -8.6087   34.2170 H   0  0  0  0  0  0  0  0  0  0  0  0
    1.1865   -6.1206   36.3966 H   0  0  0  0  0  0  0  0  0  0  0  0
    3.3687   -4.8235   37.9688 H   0  0  0  0  0  0  0  0  0  0  0  0
    1.6528   -4.5227   38.2830 H   0  0  0  0  0  0  0  0  0  0  0  0
    4.3669   -6.3577   39.5208 H   0  0  0  0  0  0  0  0  0  0  0  0
    4.1858   -8.2681   41.0753 H   0  0  0  0  0  0  0  0  0  0  0  0
    2.0349   -9.4828   41.3152 H   0  0  0  0  0  0  0  0  0  0  0  0
    0.0683   -8.7970   39.9722 H   0  0  0  0  0  0  0  0  0  0  0  0
    0.2195   -6.8900   38.4368 H   0  0  0  0  0  0  0  0  0  0  0  0
  1  2  2  0
  2  3  1  0
  3  4  1  0
  4  5  1  0
  5  6  1  0
  6  7  2  0
  6  8  1  0
  8  9  1  0
  9 10  1  0
 10 11  1  0
 11 12  1  0
 12 13  1  0
 13 14  2  0
 14 15  1  0
 15 16  2  0
 16 17  1  0
 17 18  1  0
 16 19  1  0
 19 20  2  0
 12 21  1  0
  5 22  2  0
 22 23  1  0
 23 24  2  0
 23 25  1  0
 25 26  1  0
 26 27  2  0
  2 28  1  0
 28 29  1  0
 29 30  1  0
 30 31  2  0
 31 32  1  0
 32 33  2  0
 33 34  1  0
 34 35  2  0
 26  4  1  0
 35 30  1  0
 21  8  1  0
 20 13  1  0
  3 36  1  0
  3 37  1  0
  9 38  1  0
  9 39  1  0
 10 40  1  0
 10 41  1  0
 11 42  1  0
 11 43  1  0
 12 44  1  0
 14 45  1  0
 15 46  1  0
 17 47  1  0
 17 48  1  0
 18 49  1  0
 19 50  1  0
 20 51  1  0
 21 52  1  0
 21 53  1  0
 22 54  1  0
 25 55  1  0
 28 56  1  0
 29 57  1  0
 29 58  1  0
 31 59  1  0
 32 60  1  0
 33 61  1  0
 34 62  1  0
 35 63  1  0
M  END
>  <Energy>  (233) 
4.5171949519401586

>  <compound_id>  (233) 
4007

>  <target_id>  (233) 
1

>  <reference_id>  (233) 
133

>  <inspiration_ids>  (233) 
[140, 133]

>  <energy_score>  (233) 
10.451167611337494

>  <distance_score>  (233) 
1.744792334737144

>  <path>  (233) 
/opt/xchem-fragalysis-2/maxwin/BulkDock/SCRATCH/505735/C4007-P133/C4007-P133.minimised.mol

>  <scratch_subdir>  (233) 
/opt/xchem-fragalysis-2/maxwin/BulkDock/SCRATCH/505735/C4007-P133

>  <fragmenstein_runtime>  (233) 
15.44019627571106

>  <fragmenstein_outcome>  (233) 
too moved

>  <fragmenstein_mode>  (233) 
expansion

>  <fragmenstein_error>  (233) 


$$$$
C4008-P140
     RDKit          3D

 68 72  0  0  0  0  0  0  0  0999 V2000
    5.1186   -5.1631   34.7635 O   0  0  0  0  0  0  0  0  0  0  0  0
    3.9666   -5.1640   35.0927 C   0  0  0  0  0  0  0  0  0  0  0  0
    2.8938   -5.0143   33.9889 C   0  0  0  0  0  0  0  0  0  0  0  0
    1.5308   -5.4631   34.2872 N   0  0  0  0  0  0  0  0  0  0  0  0
    1.2933   -6.7954   34.5348 C   0  0  0  0  0  0  0  0  0  0  0  0
    2.1784   -7.6193   34.7422 O   0  0  0  0  0  0  0  0  0  0  0  0
   -0.0059   -7.1918   34.5211 N   0  0  0  0  0  0  0  0  0  0  0  0
   -1.0466   -6.5320   33.8021 C   0  0  0  0  0  0  0  0  0  0  0  0
   -1.4584   -7.4042   32.7129 N   0  0  0  0  0  0  0  0  0  0  0  0
   -0.7938   -6.9976   31.4908 N   0  0  0  0  0  0  0  0  0  0  0  0
   -0.0934   -5.7375   31.7723 C   0  0  0  0  0  0  0  0  0  0  0  0
   -0.6120   -5.2660   33.1240 C   0  0  0  0  0  0  0  0  0  0  0  0
    0.4167   -4.5503   33.9904 C   0  0  0  0  0  0  0  0  0  0  0  0
   -0.1947   -4.0276   35.3223 C   0  0  0  0  0  0  0  0  0  0  0  0
    0.4049   -2.7388   35.6843 N   0  0  0  0  0  0  0  0  0  0  0  0
   -0.5516   -1.6103   35.6201 C   0  0  0  0  0  0  0  0  0  0  0  0
   -1.4956   -1.5076   34.3806 C   0  0  0  0  0  0  0  0  0  0  0  0
   -2.1683   -0.2160   34.3023 N   0  0  0  0  0  0  0  0  0  0  0  0
   -2.5735   -0.0767   32.9091 N   0  0  0  0  0  0  0  0  0  0  0  0
   -1.8085   -1.0897   32.1628 C   0  0  0  0  0  0  0  0  0  0  0  0
   -1.1837   -0.5473   30.9019 C   0  0  0  0  0  0  0  0  0  0  0  0
   -1.3168   -1.2484   29.6950 C   0  0  0  0  0  0  0  0  0  0  0  0
   -0.7886   -0.7324   28.5132 C   0  0  0  0  0  0  0  0  0  0  0  0
   -0.0865    0.4689   28.5231 C   0  0  0  0  0  0  0  0  0  0  0  0
    0.0878    1.1600   29.7180 C   0  0  0  0  0  0  0  0  0  0  0  0
   -0.4576    0.6561   30.8996 C   0  0  0  0  0  0  0  0  0  0  0  0
   -0.8242   -1.6188   33.0946 N   0  0  0  0  0  0  0  0  0  0  0  0
    3.3671   -5.1895   36.3866 N   0  0  0  0  0  0  0  0  0  0  0  0
    3.9500   -5.3168   37.6926 C   0  0  0  0  0  0  0  0  0  0  0  0
    3.0025   -5.8919   38.7091 C   0  0  0  0  0  0  0  0  0  0  0  0
    2.9238   -5.3277   39.9908 C   0  0  0  0  0  0  0  0  0  0  0  0
    2.0935   -5.8836   40.9663 C   0  0  0  0  0  0  0  0  0  0  0  0
    1.3347   -7.0125   40.6744 C   0  0  0  0  0  0  0  0  0  0  0  0
    1.4116   -7.5884   39.4099 C   0  0  0  0  0  0  0  0  0  0  0  0
    2.2459   -7.0398   38.4348 C   0  0  0  0  0  0  0  0  0  0  0  0
    3.2264   -5.5760   33.1131 H   0  0  0  0  0  0  0  0  0  0  0  0
    2.8780   -3.9503   33.7280 H   0  0  0  0  0  0  0  0  0  0  0  0
   -0.1940   -8.1359   34.8287 H   0  0  0  0  0  0  0  0  0  0  0  0
   -1.8640   -6.3824   34.5103 H   0  0  0  0  0  0  0  0  0  0  0  0
   -1.3237   -8.3853   32.9646 H   0  0  0  0  0  0  0  0  0  0  0  0
   -0.1156   -7.6947   31.1632 H   0  0  0  0  0  0  0  0  0  0  0  0
    0.9867   -5.9173   31.7684 H   0  0  0  0  0  0  0  0  0  0  0  0
   -0.3007   -5.0008   30.9891 H   0  0  0  0  0  0  0  0  0  0  0  0
   -1.4743   -4.6161   32.9389 H   0  0  0  0  0  0  0  0  0  0  0  0
    0.8065   -3.7138   33.3994 H   0  0  0  0  0  0  0  0  0  0  0  0
    0.0151   -4.7331   36.1366 H   0  0  0  0  0  0  0  0  0  0  0  0
   -1.2847   -3.9750   35.2795 H   0  0  0  0  0  0  0  0  0  0  0  0
    0.7783   -2.7815   36.6337 H   0  0  0  0  0  0  0  0  0  0  0  0
    0.0479   -0.6935   35.6877 H   0  0  0  0  0  0  0  0  0  0  0  0
   -1.1765   -1.6356   36.5225 H   0  0  0  0  0  0  0  0  0  0  0  0
   -2.2589   -2.2886   34.4541 H   0  0  0  0  0  0  0  0  0  0  0  0
   -2.9495   -0.1900   34.9601 H   0  0  0  0  0  0  0  0  0  0  0  0
   -3.5600   -0.2986   32.7671 H   0  0  0  0  0  0  0  0  0  0  0  0
   -2.4974   -1.9049   31.8998 H   0  0  0  0  0  0  0  0  0  0  0  0
   -1.8522   -2.1934   29.6507 H   0  0  0  0  0  0  0  0  0  0  0  0
   -0.9405   -1.2638   27.5789 H   0  0  0  0  0  0  0  0  0  0  0  0
    0.3185    0.8669   27.5971 H   0  0  0  0  0  0  0  0  0  0  0  0
    0.6329    2.1004   29.7269 H   0  0  0  0  0  0  0  0  0  0  0  0
   -0.3307    1.2173   31.8234 H   0  0  0  0  0  0  0  0  0  0  0  0
   -0.0678   -0.9382   33.1285 H   0  0  0  0  0  0  0  0  0  0  0  0
    2.3624   -5.0972   36.2863 H   0  0  0  0  0  0  0  0  0  0  0  0
    4.8483   -5.9393   37.6175 H   0  0  0  0  0  0  0  0  0  0  0  0
    4.2709   -4.3106   37.9837 H   0  0  0  0  0  0  0  0  0  0  0  0
    3.5197   -4.4535   40.2450 H   0  0  0  0  0  0  0  0  0  0  0  0
    2.0461   -5.4404   41.9576 H   0  0  0  0  0  0  0  0  0  0  0  0
    0.6965   -7.4574   41.4334 H   0  0  0  0  0  0  0  0  0  0  0  0
    0.8381   -8.4848   39.1949 H   0  0  0  0  0  0  0  0  0  0  0  0
    2.3188   -7.5306   37.4668 H   0  0  0  0  0  0  0  0  0  0  0  0
  1  2  2  0
  2  3  1  0
  3  4  1  0
  4  5  1  0
  5  6  2  0
  5  7  1  0
  7  8  1  0
  8  9  1  0
  9 10  1  0
 10 11  1  0
 11 12  1  0
 12 13  1  0
 13 14  1  0
 14 15  1  0
 15 16  1  0
 16 17  1  0
 17 18  1  0
 18 19  1  0
 19 20  1  0
 20 21  1  0
 21 22  2  0
 22 23  1  0
 23 24  2  0
 24 25  1  0
 25 26  2  0
 20 27  1  0
  2 28  1  0
 28 29  1  0
 29 30  1  0
 30 31  2  0
 31 32  1  0
 32 33  2  0
 33 34  1  0
 34 35  2  0
 13  4  1  0
 27 17  1  0
 35 30  1  0
 12  8  1  0
 26 21  1  0
  3 36  1  0
  3 37  1  0
  7 38  1  0
  8 39  1  0
  9 40  1  0
 10 41  1  0
 11 42  1  0
 11 43  1  0
 12 44  1  0
 13 45  1  0
 14 46  1  0
 14 47  1  0
 15 48  1  0
 16 49  1  0
 16 50  1  0
 17 51  1  0
 18 52  1  0
 19 53  1  0
 20 54  1  0
 22 55  1  0
 23 56  1  0
 24 57  1  0
 25 58  1  0
 26 59  1  0
 27 60  1  0
 28 61  1  0
 29 62  1  0
 29 63  1  0
 31 64  1  0
 32 65  1  0
 33 66  1  0
 34 67  1  0
 35 68  1  0
M  END
>  <Energy>  (234) 
3.6518289556468444

>  <compound_id>  (234) 
4008

>  <target_id>  (234) 
1

>  <reference_id>  (234) 
140

>  <inspiration_ids>  (234) 
[140, 134]

>  <energy_score>  (234) 
-51.24070015619199

>  <distance_score>  (234) 
1.9360966189810225

>  <path>  (234) 
/opt/xchem-fragalysis-2/maxwin/BulkDock/SCRATCH/505735/C4008-P140/C4008-P140.minimised.mol

>  <scratch_subdir>  (234) 
/opt/xchem-fragalysis-2/maxwin/BulkDock/SCRATCH/505735/C4008-P140

>  <fragmenstein_runtime>  (234) 
18.604821920394897

>  <fragmenstein_outcome>  (234) 
too moved

>  <fragmenstein_mode>  (234) 
expansion

>  <fragmenstein_error>  (234) 


$$$$
C4008-P134
     RDKit          3D

 68 72  0  0  0  0  0  0  0  0999 V2000
    3.4850   -8.1976   34.7596 O   0  0  0  0  0  0  0  0  0  0  0  0
    3.4221   -7.2951   35.5478 C   0  0  0  0  0  0  0  0  0  0  0  0
    2.6864   -5.9794   35.1616 C   0  0  0  0  0  0  0  0  0  0  0  0
    1.4175   -6.2307   34.4764 N   0  0  0  0  0  0  0  0  0  0  0  0
    0.5163   -7.0148   35.1712 C   0  0  0  0  0  0  0  0  0  0  0  0
    0.7397   -7.4583   36.2901 O   0  0  0  0  0  0  0  0  0  0  0  0
   -0.6506   -7.2752   34.5476 N   0  0  0  0  0  0  0  0  0  0  0  0
   -1.0253   -6.7902   33.2692 C   0  0  0  0  0  0  0  0  0  0  0  0
   -0.9265   -7.8773   32.3094 N   0  0  0  0  0  0  0  0  0  0  0  0
   -0.5821   -7.2793   31.0449 N   0  0  0  0  0  0  0  0  0  0  0  0
    0.3366   -6.1938   31.4107 C   0  0  0  0  0  0  0  0  0  0  0  0
   -0.2181   -5.6384   32.7082 C   0  0  0  0  0  0  0  0  0  0  0  0
    0.8542   -5.1399   33.6832 C   0  0  0  0  0  0  0  0  0  0  0  0
    0.2739   -4.0386   34.6177 C   0  0  0  0  0  0  0  0  0  0  0  0
    0.5321   -2.7032   34.0588 N   0  0  0  0  0  0  0  0  0  0  0  0
   -0.3979   -1.7049   34.6332 C   0  0  0  0  0  0  0  0  0  0  0  0
   -1.8280   -1.8180   34.0151 C   0  0  0  0  0  0  0  0  0  0  0  0
   -2.5798   -0.5716   34.0959 N   0  0  0  0  0  0  0  0  0  0  0  0
   -2.2444    0.1218   32.8609 N   0  0  0  0  0  0  0  0  0  0  0  0
   -1.9999   -0.9294   31.8661 C   0  0  0  0  0  0  0  0  0  0  0  0
   -0.9071   -0.6204   30.8612 C   0  0  0  0  0  0  0  0  0  0  0  0
   -1.1158   -0.9347   29.5095 C   0  0  0  0  0  0  0  0  0  0  0  0
   -0.1538   -0.6503   28.5428 C   0  0  0  0  0  0  0  0  0  0  0  0
    1.0518   -0.0665   28.9091 C   0  0  0  0  0  0  0  0  0  0  0  0
    1.2983    0.2201   30.2482 C   0  0  0  0  0  0  0  0  0  0  0  0
    0.3323   -0.0634   31.2184 C   0  0  0  0  0  0  0  0  0  0  0  0
   -1.7704   -2.1620   32.5965 N   0  0  0  0  0  0  0  0  0  0  0  0
    3.9110   -7.1896   36.8949 N   0  0  0  0  0  0  0  0  0  0  0  0
    4.5400   -8.1583   37.7472 C   0  0  0  0  0  0  0  0  0  0  0  0
    3.8643   -8.1723   39.0949 C   0  0  0  0  0  0  0  0  0  0  0  0
    4.6042   -8.0211   40.2736 C   0  0  0  0  0  0  0  0  0  0  0  0
    3.9654   -8.0322   41.5165 C   0  0  0  0  0  0  0  0  0  0  0  0
    2.5832   -8.1988   41.5961 C   0  0  0  0  0  0  0  0  0  0  0  0
    1.8367   -8.3567   40.4332 C   0  0  0  0  0  0  0  0  0  0  0  0
    2.4739   -8.3443   39.1931 C   0  0  0  0  0  0  0  0  0  0  0  0
    3.3543   -5.4362   34.4838 H   0  0  0  0  0  0  0  0  0  0  0  0
    2.4878   -5.3531   36.0361 H   0  0  0  0  0  0  0  0  0  0  0  0
   -1.1309   -8.0853   34.9333 H   0  0  0  0  0  0  0  0  0  0  0  0
   -2.0571   -6.4821   33.3638 H   0  0  0  0  0  0  0  0  0  0  0  0
   -1.7980   -8.4136   32.2974 H   0  0  0  0  0  0  0  0  0  0  0  0
   -0.0770   -7.9575   30.4606 H   0  0  0  0  0  0  0  0  0  0  0  0
    1.3467   -6.5680   31.5657 H   0  0  0  0  0  0  0  0  0  0  0  0
    0.3765   -5.4348   30.6231 H   0  0  0  0  0  0  0  0  0  0  0  0
   -0.8985   -4.8239   32.4308 H   0  0  0  0  0  0  0  0  0  0  0  0
    1.6857   -4.7176   33.1027 H   0  0  0  0  0  0  0  0  0  0  0  0
    0.7261   -4.0710   35.6151 H   0  0  0  0  0  0  0  0  0  0  0  0
   -0.7951   -4.2231   34.7687 H   0  0  0  0  0  0  0  0  0  0  0  0
    1.4859   -2.4283   34.2980 H   0  0  0  0  0  0  0  0  0  0  0  0
    0.0240   -0.7184   34.4078 H   0  0  0  0  0  0  0  0  0  0  0  0
   -0.4407   -1.7772   35.7270 H   0  0  0  0  0  0  0  0  0  0  0  0
   -2.3653   -2.5920   34.5634 H   0  0  0  0  0  0  0  0  0  0  0  0
   -3.5666   -0.8462   34.0636 H   0  0  0  0  0  0  0  0  0  0  0  0
   -1.3809    0.6496   32.9835 H   0  0  0  0  0  0  0  0  0  0  0  0
   -2.9392   -1.0493   31.3201 H   0  0  0  0  0  0  0  0  0  0  0  0
   -2.0385   -1.4015   29.1801 H   0  0  0  0  0  0  0  0  0  0  0  0
   -0.3625   -0.8815   27.5029 H   0  0  0  0  0  0  0  0  0  0  0  0
    1.7966    0.1616   28.1517 H   0  0  0  0  0  0  0  0  0  0  0  0
    2.2446    0.6694   30.5386 H   0  0  0  0  0  0  0  0  0  0  0  0
    0.5681    0.1603   32.2542 H   0  0  0  0  0  0  0  0  0  0  0  0
   -0.8068   -2.4623   32.4317 H   0  0  0  0  0  0  0  0  0  0  0  0
    3.6043   -6.3101   37.2893 H   0  0  0  0  0  0  0  0  0  0  0  0
    4.4964   -9.1473   37.2816 H   0  0  0  0  0  0  0  0  0  0  0  0
    5.5912   -7.8663   37.8380 H   0  0  0  0  0  0  0  0  0  0  0  0
    5.6833   -7.8918   40.2359 H   0  0  0  0  0  0  0  0  0  0  0  0
    4.5481   -7.9121   42.4264 H   0  0  0  0  0  0  0  0  0  0  0  0
    2.0891   -8.2085   42.5638 H   0  0  0  0  0  0  0  0  0  0  0  0
    0.7594   -8.4965   40.4795 H   0  0  0  0  0  0  0  0  0  0  0  0
    1.8675   -8.4738   38.2970 H   0  0  0  0  0  0  0  0  0  0  0  0
  1  2  2  0
  2  3  1  0
  3  4  1  0
  4  5  1  0
  5  6  2  0
  5  7  1  0
  7  8  1  0
  8  9  1  0
  9 10  1  0
 10 11  1  0
 11 12  1  0
 12 13  1  0
 13 14  1  0
 14 15  1  0
 15 16  1  0
 16 17  1  0
 17 18  1  0
 18 19  1  0
 19 20  1  0
 20 21  1  0
 21 22  2  0
 22 23  1  0
 23 24  2  0
 24 25  1  0
 25 26  2  0
 20 27  1  0
  2 28  1  0
 28 29  1  0
 29 30  1  0
 30 31  2  0
 31 32  1  0
 32 33  2  0
 33 34  1  0
 34 35  2  0
 13  4  1  0
 27 17  1  0
 35 30  1  0
 12  8  1  0
 26 21  1  0
  3 36  1  0
  3 37  1  0
  7 38  1  0
  8 39  1  0
  9 40  1  0
 10 41  1  0
 11 42  1  0
 11 43  1  0
 12 44  1  0
 13 45  1  0
 14 46  1  0
 14 47  1  0
 15 48  1  0
 16 49  1  0
 16 50  1  0
 17 51  1  0
 18 52  1  0
 19 53  1  0
 20 54  1  0
 22 55  1  0
 23 56  1  0
 24 57  1  0
 25 58  1  0
 26 59  1  0
 27 60  1  0
 28 61  1  0
 29 62  1  0
 29 63  1  0
 31 64  1  0
 32 65  1  0
 33 66  1  0
 34 67  1  0
 35 68  1  0
M  END
>  <Energy>  (235) 
7.1559415424723003

>  <compound_id>  (235) 
4008

>  <target_id>  (235) 
1

>  <reference_id>  (235) 
134

>  <inspiration_ids>  (235) 
[140, 134]

>  <energy_score>  (235) 
-47.73658756936858

>  <distance_score>  (235) 
1.724451476732142

>  <path>  (235) 
/opt/xchem-fragalysis-2/maxwin/BulkDock/SCRATCH/505735/C4008-P134/C4008-P134.minimised.mol

>  <scratch_subdir>  (235) 
/opt/xchem-fragalysis-2/maxwin/BulkDock/SCRATCH/505735/C4008-P134

>  <fragmenstein_runtime>  (235) 
18.52783441543579

>  <fragmenstein_outcome>  (235) 
too moved

>  <fragmenstein_mode>  (235) 
expansion

>  <fragmenstein_error>  (235) 


$$$$
C4011-P140
     RDKit          3D

 56 57  0  0  0  0  0  0  0  0999 V2000
    1.0411   -6.2499   31.5824 N   0  0  0  0  0  0  0  0  0  0  0  0
   -0.4172   -6.0763   31.4223 C   0  0  0  0  0  0  0  0  0  0  0  0
   -0.8562   -4.6436   31.7347 C   0  0  0  0  0  0  0  0  0  0  0  0
   -0.0531   -3.5799   31.0354 C   0  0  0  0  0  0  0  0  0  0  0  0
    1.1401   -3.0927   31.8638 C   0  0  0  0  0  0  0  0  0  0  0  0
    1.6870   -1.9581   31.0681 C   0  0  0  0  0  0  0  0  0  0  0  0
    2.6458   -2.1826   30.0873 C   0  0  0  0  0  0  0  0  0  0  0  0
    2.8445   -1.3218   29.0700 N   0  0  0  0  0  0  0  0  0  0  0  0
    2.0305   -0.2399   29.0702 C   0  0  0  0  0  0  0  0  0  0  0  0
    1.1107    0.0097   30.0726 C   0  0  0  0  0  0  0  0  0  0  0  0
    0.9377   -0.8315   31.1051 N   0  0  0  0  0  0  0  0  0  0  0  0
   -1.1687   -7.1121   32.3010 C   0  0  0  0  0  0  0  0  0  0  0  0
   -1.2222   -8.3208   31.5594 O   0  0  0  0  0  0  0  0  0  0  0  0
   -0.5512   -7.4437   33.5634 N   0  0  0  0  0  0  0  0  0  0  0  0
   -0.5795   -6.4269   34.5636 C   0  0  0  0  0  0  0  0  0  0  0  0
   -0.4630   -7.0970   35.7847 O   0  0  0  0  0  0  0  0  0  0  0  0
    0.4970   -5.5238   34.3073 N   0  0  0  0  0  0  0  0  0  0  0  0
    1.5079   -5.3524   35.3296 C   0  0  0  0  0  0  0  0  0  0  0  0
    2.4134   -6.5958   35.4535 C   0  0  0  0  0  0  0  0  0  0  0  0
    2.4467   -7.4901   34.6996 O   0  0  0  0  0  0  0  0  0  0  0  0
    3.1359   -6.3988   36.8127 N   0  0  0  0  0  0  0  0  0  0  0  0
    3.9642   -7.2914   37.5617 C   0  0  0  0  0  0  0  0  0  0  0  0
    3.2767   -7.5676   38.8719 C   0  0  0  0  0  0  0  0  0  0  0  0
    4.0043   -7.5941   40.0648 C   0  0  0  0  0  0  0  0  0  0  0  0
    3.3584   -7.8493   41.2756 C   0  0  0  0  0  0  0  0  0  0  0  0
    1.9843   -8.0824   41.3066 C   0  0  0  0  0  0  0  0  0  0  0  0
    1.2499   -8.0645   40.1273 C   0  0  0  0  0  0  0  0  0  0  0  0
    1.8922   -7.8152   38.9181 C   0  0  0  0  0  0  0  0  0  0  0  0
    1.4954   -5.7906   30.7921 H   0  0  0  0  0  0  0  0  0  0  0  0
    1.2084   -7.2501   31.4307 H   0  0  0  0  0  0  0  0  0  0  0  0
   -0.6363   -6.2901   30.3686 H   0  0  0  0  0  0  0  0  0  0  0  0
   -0.9421   -4.4110   32.7953 H   0  0  0  0  0  0  0  0  0  0  0  0
   -1.8654   -4.5208   31.3668 H   0  0  0  0  0  0  0  0  0  0  0  0
   -0.7365   -2.7381   30.8516 H   0  0  0  0  0  0  0  0  0  0  0  0
    0.2596   -3.9216   30.0394 H   0  0  0  0  0  0  0  0  0  0  0  0
    0.8158   -2.7335   32.8472 H   0  0  0  0  0  0  0  0  0  0  0  0
    1.9044   -3.8565   32.0242 H   0  0  0  0  0  0  0  0  0  0  0  0
    3.2175   -3.1016   30.0423 H   0  0  0  0  0  0  0  0  0  0  0  0
    2.1505    0.4427   28.2361 H   0  0  0  0  0  0  0  0  0  0  0  0
    0.4829    0.8930   30.0607 H   0  0  0  0  0  0  0  0  0  0  0  0
   -2.1910   -6.8095   32.4538 H   0  0  0  0  0  0  0  0  0  0  0  0
   -1.3939   -8.9857   32.2481 H   0  0  0  0  0  0  0  0  0  0  0  0
    0.4389   -7.5864   33.3805 H   0  0  0  0  0  0  0  0  0  0  0  0
   -1.5344   -5.8980   34.5824 H   0  0  0  0  0  0  0  0  0  0  0  0
   -0.6153   -8.0220   35.5171 H   0  0  0  0  0  0  0  0  0  0  0  0
    0.9524   -5.7563   33.4214 H   0  0  0  0  0  0  0  0  0  0  0  0
    2.1525   -4.5116   35.0495 H   0  0  0  0  0  0  0  0  0  0  0  0
    1.0384   -5.1031   36.2876 H   0  0  0  0  0  0  0  0  0  0  0  0
    2.8162   -5.5389   37.2449 H   0  0  0  0  0  0  0  0  0  0  0  0
    4.9263   -6.7929   37.7128 H   0  0  0  0  0  0  0  0  0  0  0  0
    4.1149   -8.2169   36.9992 H   0  0  0  0  0  0  0  0  0  0  0  0
    5.0773   -7.4195   40.0650 H   0  0  0  0  0  0  0  0  0  0  0  0
    3.9293   -7.8758   42.2002 H   0  0  0  0  0  0  0  0  0  0  0  0
    1.4886   -8.2999   42.2488 H   0  0  0  0  0  0  0  0  0  0  0  0
    0.1861   -8.2852   40.1424 H   0  0  0  0  0  0  0  0  0  0  0  0
    1.2983   -7.8412   38.0066 H   0  0  0  0  0  0  0  0  0  0  0  0
  1  2  1  0
  2  3  1  0
  3  4  1  0
  4  5  1  0
  5  6  1  0
  6  7  2  0
  7  8  1  0
  8  9  2  0
  9 10  1  0
 10 11  2  0
  2 12  1  0
 12 13  1  0
 12 14  1  0
 14 15  1  0
 15 16  1  0
 15 17  1  0
 17 18  1  0
 18 19  1  0
 19 20  2  0
 19 21  1  0
 21 22  1  0
 22 23  1  0
 23 24  2  0
 24 25  1  0
 25 26  2  0
 26 27  1  0
 27 28  2  0
 11  6  1  0
 28 23  1  0
  1 29  1  0
  1 30  1  0
  2 31  1  0
  3 32  1  0
  3 33  1  0
  4 34  1  0
  4 35  1  0
  5 36  1  0
  5 37  1  0
  7 38  1  0
  9 39  1  0
 10 40  1  0
 12 41  1  0
 13 42  1  0
 14 43  1  0
 15 44  1  0
 16 45  1  0
 17 46  1  0
 18 47  1  0
 18 48  1  0
 21 49  1  0
 22 50  1  0
 22 51  1  0
 24 52  1  0
 25 53  1  0
 26 54  1  0
 27 55  1  0
 28 56  1  0
M  END
>  <Energy>  (236) 
-36.271331476150863

>  <compound_id>  (236) 
4011

>  <target_id>  (236) 
1

>  <reference_id>  (236) 
140

>  <inspiration_ids>  (236) 
[140, 141]

>  <energy_score>  (236) 
-61.92470122197808

>  <distance_score>  (236) 
1.3306726934891506

>  <path>  (236) 
/opt/xchem-fragalysis-2/maxwin/BulkDock/SCRATCH/505735/C4011-P140/C4011-P140.minimised.mol

>  <scratch_subdir>  (236) 
/opt/xchem-fragalysis-2/maxwin/BulkDock/SCRATCH/505735/C4011-P140

>  <fragmenstein_runtime>  (236) 
5.482832908630371

>  <fragmenstein_outcome>  (236) 
too moved

>  <fragmenstein_mode>  (236) 
expansion

>  <fragmenstein_error>  (236) 


$$$$
C4011-P141
     RDKit          3D

 56 57  0  0  0  0  0  0  0  0999 V2000
    1.4297   -5.8754   32.8977 N   0  0  0  0  0  0  0  0  0  0  0  0
    0.4594   -6.4867   31.9780 C   0  0  0  0  0  0  0  0  0  0  0  0
    0.2446   -5.5638   30.7561 C   0  0  0  0  0  0  0  0  0  0  0  0
    1.5287   -5.0517   30.0778 C   0  0  0  0  0  0  0  0  0  0  0  0
    1.9649   -3.6554   30.5481 C   0  0  0  0  0  0  0  0  0  0  0  0
    1.1612   -2.5276   29.9570 C   0  0  0  0  0  0  0  0  0  0  0  0
    1.6154   -1.2167   30.0556 C   0  0  0  0  0  0  0  0  0  0  0  0
    0.9564   -0.1652   29.5159 N   0  0  0  0  0  0  0  0  0  0  0  0
   -0.1915   -0.4778   28.8689 C   0  0  0  0  0  0  0  0  0  0  0  0
   -0.6626   -1.7736   28.7773 C   0  0  0  0  0  0  0  0  0  0  0  0
   -0.0008   -2.8175   29.3247 N   0  0  0  0  0  0  0  0  0  0  0  0
   -0.9410   -6.8801   32.5954 C   0  0  0  0  0  0  0  0  0  0  0  0
   -1.5993   -7.7280   31.6508 O   0  0  0  0  0  0  0  0  0  0  0  0
   -1.0797   -7.5743   33.8590 N   0  0  0  0  0  0  0  0  0  0  0  0
   -0.3876   -7.0788   35.0141 C   0  0  0  0  0  0  0  0  0  0  0  0
    0.9456   -7.5220   34.9569 O   0  0  0  0  0  0  0  0  0  0  0  0
   -0.4916   -5.6573   35.0622 N   0  0  0  0  0  0  0  0  0  0  0  0
   -0.4569   -5.0509   36.3915 C   0  0  0  0  0  0  0  0  0  0  0  0
    0.9173   -5.1873   37.0831 C   0  0  0  0  0  0  0  0  0  0  0  0
    1.8632   -5.5854   36.4640 O   0  0  0  0  0  0  0  0  0  0  0  0
    0.7866   -4.8279   38.4628 N   0  0  0  0  0  0  0  0  0  0  0  0
    1.7181   -4.9212   39.5539 C   0  0  0  0  0  0  0  0  0  0  0  0
    1.9569   -6.3650   39.9078 C   0  0  0  0  0  0  0  0  0  0  0  0
    3.2402   -6.9225   39.8167 C   0  0  0  0  0  0  0  0  0  0  0  0
    3.4466   -8.2720   40.1059 C   0  0  0  0  0  0  0  0  0  0  0  0
    2.3730   -9.0758   40.4813 C   0  0  0  0  0  0  0  0  0  0  0  0
    1.0946   -8.5323   40.5791 C   0  0  0  0  0  0  0  0  0  0  0  0
    0.8869   -7.1832   40.3014 C   0  0  0  0  0  0  0  0  0  0  0  0
    2.3368   -5.7891   32.4489 H   0  0  0  0  0  0  0  0  0  0  0  0
    1.5809   -6.5497   33.6581 H   0  0  0  0  0  0  0  0  0  0  0  0
    0.8957   -7.4087   31.5950 H   0  0  0  0  0  0  0  0  0  0  0  0
   -0.3984   -4.7238   31.0430 H   0  0  0  0  0  0  0  0  0  0  0  0
   -0.3125   -6.1386   30.0083 H   0  0  0  0  0  0  0  0  0  0  0  0
    1.3781   -5.0274   28.9924 H   0  0  0  0  0  0  0  0  0  0  0  0
    2.3478   -5.7565   30.2415 H   0  0  0  0  0  0  0  0  0  0  0  0
    1.9339   -3.5743   31.6389 H   0  0  0  0  0  0  0  0  0  0  0  0
    3.0096   -3.5162   30.2413 H   0  0  0  0  0  0  0  0  0  0  0  0
    2.5381   -0.9711   30.5694 H   0  0  0  0  0  0  0  0  0  0  0  0
   -0.7295    0.3475   28.4169 H   0  0  0  0  0  0  0  0  0  0  0  0
   -1.5794   -2.0104   28.2468 H   0  0  0  0  0  0  0  0  0  0  0  0
   -1.5278   -5.9612   32.6572 H   0  0  0  0  0  0  0  0  0  0  0  0
   -2.3280   -8.1121   32.1704 H   0  0  0  0  0  0  0  0  0  0  0  0
   -0.7793   -8.5363   33.7473 H   0  0  0  0  0  0  0  0  0  0  0  0
   -0.8503   -7.5422   35.8919 H   0  0  0  0  0  0  0  0  0  0  0  0
    1.4036   -7.0237   35.6666 H   0  0  0  0  0  0  0  0  0  0  0  0
    0.2446   -5.2629   34.4697 H   0  0  0  0  0  0  0  0  0  0  0  0
   -0.6707   -3.9810   36.2918 H   0  0  0  0  0  0  0  0  0  0  0  0
   -1.2356   -5.4898   37.0235 H   0  0  0  0  0  0  0  0  0  0  0  0
   -0.1422   -4.4536   38.6200 H   0  0  0  0  0  0  0  0  0  0  0  0
    1.3107   -4.3780   40.4122 H   0  0  0  0  0  0  0  0  0  0  0  0
    2.6477   -4.4359   39.2388 H   0  0  0  0  0  0  0  0  0  0  0  0
    4.0850   -6.3139   39.5028 H   0  0  0  0  0  0  0  0  0  0  0  0
    4.4414   -8.7013   40.0247 H   0  0  0  0  0  0  0  0  0  0  0  0
    2.5204  -10.1341   40.6845 H   0  0  0  0  0  0  0  0  0  0  0  0
    0.2618   -9.1738   40.8576 H   0  0  0  0  0  0  0  0  0  0  0  0
   -0.1184   -6.7775   40.3787 H   0  0  0  0  0  0  0  0  0  0  0  0
  1  2  1  0
  2  3  1  0
  3  4  1  0
  4  5  1  0
  5  6  1  0
  6  7  2  0
  7  8  1  0
  8  9  2  0
  9 10  1  0
 10 11  2  0
  2 12  1  0
 12 13  1  0
 12 14  1  0
 14 15  1  0
 15 16  1  0
 15 17  1  0
 17 18  1  0
 18 19  1  0
 19 20  2  0
 19 21  1  0
 21 22  1  0
 22 23  1  0
 23 24  2  0
 24 25  1  0
 25 26  2  0
 26 27  1  0
 27 28  2  0
 11  6  1  0
 28 23  1  0
  1 29  1  0
  1 30  1  0
  2 31  1  0
  3 32  1  0
  3 33  1  0
  4 34  1  0
  4 35  1  0
  5 36  1  0
  5 37  1  0
  7 38  1  0
  9 39  1  0
 10 40  1  0
 12 41  1  0
 13 42  1  0
 14 43  1  0
 15 44  1  0
 16 45  1  0
 17 46  1  0
 18 47  1  0
 18 48  1  0
 21 49  1  0
 22 50  1  0
 22 51  1  0
 24 52  1  0
 25 53  1  0
 26 54  1  0
 27 55  1  0
 28 56  1  0
M  END
>  <Energy>  (237) 
-47.603005231711244

>  <compound_id>  (237) 
4011

>  <target_id>  (237) 
1

>  <reference_id>  (237) 
141

>  <inspiration_ids>  (237) 
[140, 141]

>  <energy_score>  (237) 
-45.785622481311776

>  <distance_score>  (237) 
1.8785380279104031

>  <path>  (237) 
/opt/xchem-fragalysis-2/maxwin/BulkDock/SCRATCH/505735/C4011-P141/C4011-P141.minimised.mol

>  <scratch_subdir>  (237) 
/opt/xchem-fragalysis-2/maxwin/BulkDock/SCRATCH/505735/C4011-P141

>  <fragmenstein_runtime>  (237) 
9.927936315536499

>  <fragmenstein_outcome>  (237) 
too moved

>  <fragmenstein_mode>  (237) 
expansion

>  <fragmenstein_error>  (237) 


$$$$
C4012-P140
     RDKit          3D

 56 57  0  0  0  0  0  0  0  0999 V2000
    1.7809   -0.8344   33.8042 C   0  0  0  0  0  0  0  0  0  0  0  0
    1.6822   -2.3585   33.8858 C   0  0  0  0  0  0  0  0  0  0  0  0
    0.5552   -2.9419   33.0025 C   0  0  0  0  0  0  0  0  0  0  0  0
    0.7307   -2.8253   31.5082 C   0  0  0  0  0  0  0  0  0  0  0  0
    1.9428   -2.6048   30.8674 C   0  0  0  0  0  0  0  0  0  0  0  0
    2.0217   -2.2328   29.5685 N   0  0  0  0  0  0  0  0  0  0  0  0
    0.8360   -2.0713   28.9371 C   0  0  0  0  0  0  0  0  0  0  0  0
   -0.3719   -2.3474   29.5403 C   0  0  0  0  0  0  0  0  0  0  0  0
   -0.4445   -2.7494   30.8238 N   0  0  0  0  0  0  0  0  0  0  0  0
   -0.1033   -4.3211   33.4149 C   0  0  0  0  0  0  0  0  0  0  0  0
   -0.9636   -4.0618   34.5648 N   0  0  0  0  0  0  0  0  0  0  0  0
    0.6478   -5.5530   33.7172 N   0  0  0  0  0  0  0  0  0  0  0  0
    1.7408   -5.3309   34.6949 C   0  0  0  0  0  0  0  0  0  0  0  0
    2.5411   -6.5874   35.1172 C   0  0  0  0  0  0  0  0  0  0  0  0
    2.6684   -7.5347   34.4473 O   0  0  0  0  0  0  0  0  0  0  0  0
    3.1127   -6.2666   36.5218 N   0  0  0  0  0  0  0  0  0  0  0  0
    3.8745   -7.0786   37.4238 C   0  0  0  0  0  0  0  0  0  0  0  0
    3.1153   -7.3202   38.6975 C   0  0  0  0  0  0  0  0  0  0  0  0
    3.7999   -7.3771   39.9183 C   0  0  0  0  0  0  0  0  0  0  0  0
    3.1161   -7.6653   41.1000 C   0  0  0  0  0  0  0  0  0  0  0  0
    1.7442   -7.9045   41.0743 C   0  0  0  0  0  0  0  0  0  0  0  0
    1.0531   -7.8552   39.8684 C   0  0  0  0  0  0  0  0  0  0  0  0
    1.7333   -7.5702   38.6862 C   0  0  0  0  0  0  0  0  0  0  0  0
   -0.1910   -6.6880   34.1361 C   0  0  0  0  0  0  0  0  0  0  0  0
   -0.7549   -6.4910   35.4108 O   0  0  0  0  0  0  0  0  0  0  0  0
   -1.2482   -7.0174   33.2141 N   0  0  0  0  0  0  0  0  0  0  0  0
   -0.7742   -7.3191   31.8968 C   0  0  0  0  0  0  0  0  0  0  0  0
   -1.7034   -8.1845   31.2944 O   0  0  0  0  0  0  0  0  0  0  0  0
    2.0108   -0.4922   32.7916 H   0  0  0  0  0  0  0  0  0  0  0  0
    2.5766   -0.4767   34.4657 H   0  0  0  0  0  0  0  0  0  0  0  0
    0.8449   -0.3639   34.1221 H   0  0  0  0  0  0  0  0  0  0  0  0
    1.4997   -2.6032   34.9374 H   0  0  0  0  0  0  0  0  0  0  0  0
    2.6581   -2.7704   33.6139 H   0  0  0  0  0  0  0  0  0  0  0  0
   -0.2613   -2.2148   33.1670 H   0  0  0  0  0  0  0  0  0  0  0  0
    2.8957   -2.6633   31.3791 H   0  0  0  0  0  0  0  0  0  0  0  0
    0.8819   -1.6991   27.9227 H   0  0  0  0  0  0  0  0  0  0  0  0
   -1.3113   -2.2376   29.0073 H   0  0  0  0  0  0  0  0  0  0  0  0
   -0.7777   -4.5631   32.5873 H   0  0  0  0  0  0  0  0  0  0  0  0
   -0.7186   -3.1862   35.0269 H   0  0  0  0  0  0  0  0  0  0  0  0
   -1.9317   -3.8961   34.2409 H   0  0  0  0  0  0  0  0  0  0  0  0
    1.3510   -4.8367   35.5909 H   0  0  0  0  0  0  0  0  0  0  0  0
    2.5074   -4.7068   34.2352 H   0  0  0  0  0  0  0  0  0  0  0  0
    2.8708   -5.3172   36.7768 H   0  0  0  0  0  0  0  0  0  0  0  0
    4.8085   -6.5422   37.6189 H   0  0  0  0  0  0  0  0  0  0  0  0
    4.1056   -8.0317   36.9382 H   0  0  0  0  0  0  0  0  0  0  0  0
    4.8741   -7.2135   39.9589 H   0  0  0  0  0  0  0  0  0  0  0  0
    3.6553   -7.7201   42.0420 H   0  0  0  0  0  0  0  0  0  0  0  0
    1.2151   -8.1552   41.9897 H   0  0  0  0  0  0  0  0  0  0  0  0
   -0.0084   -8.0868   39.8405 H   0  0  0  0  0  0  0  0  0  0  0  0
    1.1731   -7.5869   37.7531 H   0  0  0  0  0  0  0  0  0  0  0  0
    0.4049   -7.5868   34.2315 H   0  0  0  0  0  0  0  0  0  0  0  0
   -1.0325   -5.5531   35.3646 H   0  0  0  0  0  0  0  0  0  0  0  0
   -1.8939   -6.2410   33.1849 H   0  0  0  0  0  0  0  0  0  0  0  0
   -0.6802   -6.4270   31.2707 H   0  0  0  0  0  0  0  0  0  0  0  0
    0.1885   -7.8221   31.8963 H   0  0  0  0  0  0  0  0  0  0  0  0
   -2.1395   -8.6080   32.0609 H   0  0  0  0  0  0  0  0  0  0  0  0
  1  2  1  0
  2  3  1  0
  3  4  1  0
  4  5  2  0
  5  6  1  0
  6  7  2  0
  7  8  1  0
  8  9  2  0
  3 10  1  0
 10 11  1  0
 10 12  1  0
 12 13  1  0
 13 14  1  0
 14 15  2  0
 14 16  1  0
 16 17  1  0
 17 18  1  0
 18 19  2  0
 19 20  1  0
 20 21  2  0
 21 22  1  0
 22 23  2  0
 12 24  1  0
 24 25  1  0
 24 26  1  0
 26 27  1  0
 27 28  1  0
  9  4  1  0
 23 18  1  0
  1 29  1  0
  1 30  1  0
  1 31  1  0
  2 32  1  0
  2 33  1  0
  3 34  1  0
  5 35  1  0
  7 36  1  0
  8 37  1  0
 10 38  1  0
 11 39  1  0
 11 40  1  0
 13 41  1  0
 13 42  1  0
 16 43  1  0
 17 44  1  0
 17 45  1  0
 19 46  1  0
 20 47  1  0
 21 48  1  0
 22 49  1  0
 23 50  1  0
 24 51  1  0
 25 52  1  0
 26 53  1  0
 27 54  1  0
 27 55  1  0
 28 56  1  0
M  END
>  <Energy>  (238) 
-75.310144347309475

>  <compound_id>  (238) 
4012

>  <target_id>  (238) 
1

>  <reference_id>  (238) 
140

>  <inspiration_ids>  (238) 
[140, 142]

>  <energy_score>  (238) 
-35.894822195076415

>  <distance_score>  (238) 
1.1736282717696538

>  <path>  (238) 
/opt/xchem-fragalysis-2/maxwin/BulkDock/SCRATCH/505735/C4012-P140/C4012-P140.minimised.mol

>  <scratch_subdir>  (238) 
/opt/xchem-fragalysis-2/maxwin/BulkDock/SCRATCH/505735/C4012-P140

>  <fragmenstein_runtime>  (238) 
5.244780540466309

>  <fragmenstein_outcome>  (238) 
too moved

>  <fragmenstein_mode>  (238) 
expansion

>  <fragmenstein_error>  (238) 


$$$$
C4012-P142
     RDKit          3D

 56 57  0  0  0  0  0  0  0  0999 V2000
   -0.4569   -1.6714   34.5043 C   0  0  0  0  0  0  0  0  0  0  0  0
    0.4657   -2.8576   34.2386 C   0  0  0  0  0  0  0  0  0  0  0  0
    0.1455   -3.5925   32.9225 C   0  0  0  0  0  0  0  0  0  0  0  0
    0.2669   -2.6635   31.7181 C   0  0  0  0  0  0  0  0  0  0  0  0
    1.4471   -2.0086   31.3643 C   0  0  0  0  0  0  0  0  0  0  0  0
    1.5950   -1.3391   30.1960 N   0  0  0  0  0  0  0  0  0  0  0  0
    0.5008   -1.3159   29.3990 C   0  0  0  0  0  0  0  0  0  0  0  0
   -0.6786   -1.9449   29.7449 C   0  0  0  0  0  0  0  0  0  0  0  0
   -0.8117   -2.6391   30.8956 N   0  0  0  0  0  0  0  0  0  0  0  0
    1.0351   -4.8591   32.6567 C   0  0  0  0  0  0  0  0  0  0  0  0
    0.8024   -5.4084   31.3302 N   0  0  0  0  0  0  0  0  0  0  0  0
    1.1269   -6.0103   33.5560 N   0  0  0  0  0  0  0  0  0  0  0  0
    2.1107   -5.7431   34.6315 C   0  0  0  0  0  0  0  0  0  0  0  0
    2.7742   -7.0425   35.1543 C   0  0  0  0  0  0  0  0  0  0  0  0
    2.7932   -8.0538   34.5710 O   0  0  0  0  0  0  0  0  0  0  0  0
    3.3694   -6.6688   36.5368 N   0  0  0  0  0  0  0  0  0  0  0  0
    4.0222   -7.4819   37.5188 C   0  0  0  0  0  0  0  0  0  0  0  0
    3.1705   -7.5946   38.7518 C   0  0  0  0  0  0  0  0  0  0  0  0
    3.7437   -7.4415   40.0197 C   0  0  0  0  0  0  0  0  0  0  0  0
    2.9644   -7.5835   41.1684 C   0  0  0  0  0  0  0  0  0  0  0  0
    1.6072   -7.8811   41.0629 C   0  0  0  0  0  0  0  0  0  0  0  0
    1.0272   -8.0420   39.8090 C   0  0  0  0  0  0  0  0  0  0  0  0
    1.8038   -7.9045   38.6602 C   0  0  0  0  0  0  0  0  0  0  0  0
   -0.0725   -6.6135   34.1279 C   0  0  0  0  0  0  0  0  0  0  0  0
   -0.9898   -5.6836   34.6168 O   0  0  0  0  0  0  0  0  0  0  0  0
   -0.6948   -7.6541   33.3619 N   0  0  0  0  0  0  0  0  0  0  0  0
   -0.9545   -7.4548   31.9787 C   0  0  0  0  0  0  0  0  0  0  0  0
   -1.6992   -8.5475   31.4950 O   0  0  0  0  0  0  0  0  0  0  0  0
   -0.3239   -0.8787   33.7621 H   0  0  0  0  0  0  0  0  0  0  0  0
   -0.2406   -1.2427   35.4882 H   0  0  0  0  0  0  0  0  0  0  0  0
   -1.5065   -1.9827   34.4953 H   0  0  0  0  0  0  0  0  0  0  0  0
    0.3493   -3.5402   35.0837 H   0  0  0  0  0  0  0  0  0  0  0  0
    1.5067   -2.5141   34.2514 H   0  0  0  0  0  0  0  0  0  0  0  0
   -0.9050   -3.9050   32.9576 H   0  0  0  0  0  0  0  0  0  0  0  0
    2.3288   -2.0298   31.9945 H   0  0  0  0  0  0  0  0  0  0  0  0
    0.5960   -0.7755   28.4632 H   0  0  0  0  0  0  0  0  0  0  0  0
   -1.5449   -1.9242   29.0906 H   0  0  0  0  0  0  0  0  0  0  0  0
    2.0558   -4.4630   32.5603 H   0  0  0  0  0  0  0  0  0  0  0  0
    0.8373   -4.6877   30.6116 H   0  0  0  0  0  0  0  0  0  0  0  0
    1.5558   -6.0618   31.1410 H   0  0  0  0  0  0  0  0  0  0  0  0
    1.6389   -5.2071   35.4608 H   0  0  0  0  0  0  0  0  0  0  0  0
    2.9516   -5.1369   34.2712 H   0  0  0  0  0  0  0  0  0  0  0  0
    3.0970   -5.7234   36.7783 H   0  0  0  0  0  0  0  0  0  0  0  0
    4.9812   -7.0039   37.7413 H   0  0  0  0  0  0  0  0  0  0  0  0
    4.2086   -8.4750   37.0982 H   0  0  0  0  0  0  0  0  0  0  0  0
    4.8024   -7.2161   40.1259 H   0  0  0  0  0  0  0  0  0  0  0  0
    3.4163   -7.4632   42.1497 H   0  0  0  0  0  0  0  0  0  0  0  0
    1.0024   -7.9957   41.9585 H   0  0  0  0  0  0  0  0  0  0  0  0
   -0.0240   -8.3026   39.7201 H   0  0  0  0  0  0  0  0  0  0  0  0
    1.3323   -8.0734   37.6932 H   0  0  0  0  0  0  0  0  0  0  0  0
    0.2290   -7.1595   35.0284 H   0  0  0  0  0  0  0  0  0  0  0  0
   -1.6859   -5.6009   33.9470 H   0  0  0  0  0  0  0  0  0  0  0  0
   -1.5055   -8.0180   33.8529 H   0  0  0  0  0  0  0  0  0  0  0  0
   -1.5164   -6.5441   31.7700 H   0  0  0  0  0  0  0  0  0  0  0  0
   -0.0380   -7.5066   31.3971 H   0  0  0  0  0  0  0  0  0  0  0  0
   -1.2668   -9.3141   31.9098 H   0  0  0  0  0  0  0  0  0  0  0  0
  1  2  1  0
  2  3  1  0
  3  4  1  0
  4  5  2  0
  5  6  1  0
  6  7  2  0
  7  8  1  0
  8  9  2  0
  3 10  1  0
 10 11  1  0
 10 12  1  0
 12 13  1  0
 13 14  1  0
 14 15  2  0
 14 16  1  0
 16 17  1  0
 17 18  1  0
 18 19  2  0
 19 20  1  0
 20 21  2  0
 21 22  1  0
 22 23  2  0
 12 24  1  0
 24 25  1  0
 24 26  1  0
 26 27  1  0
 27 28  1  0
  9  4  1  0
 23 18  1  0
  1 29  1  0
  1 30  1  0
  1 31  1  0
  2 32  1  0
  2 33  1  0
  3 34  1  0
  5 35  1  0
  7 36  1  0
  8 37  1  0
 10 38  1  0
 11 39  1  0
 11 40  1  0
 13 41  1  0
 13 42  1  0
 16 43  1  0
 17 44  1  0
 17 45  1  0
 19 46  1  0
 20 47  1  0
 21 48  1  0
 22 49  1  0
 23 50  1  0
 24 51  1  0
 25 52  1  0
 26 53  1  0
 27 54  1  0
 27 55  1  0
 28 56  1  0
M  END
>  <Energy>  (239) 
-72.936894752203642

>  <compound_id>  (239) 
4012

>  <target_id>  (239) 
1

>  <reference_id>  (239) 
142

>  <inspiration_ids>  (239) 
[140, 142]

>  <energy_score>  (239) 
-33.52157259997057

>  <distance_score>  (239) 
1.0591217802563828

>  <path>  (239) 
/opt/xchem-fragalysis-2/maxwin/BulkDock/SCRATCH/505735/C4012-P142/C4012-P142.minimised.mol

>  <scratch_subdir>  (239) 
/opt/xchem-fragalysis-2/maxwin/BulkDock/SCRATCH/505735/C4012-P142

>  <fragmenstein_runtime>  (239) 
5.6908416748046875

>  <fragmenstein_outcome>  (239) 
too moved

>  <fragmenstein_mode>  (239) 
expansion

>  <fragmenstein_error>  (239) 


$$$$
C4014-P140
     RDKit          3D

 58 62  0  0  0  0  0  0  0  0999 V2000
    2.1073    0.9495   30.8044 C   0  0  0  0  0  0  0  0  0  0  0  0
    2.0658   -0.3869   30.8917 C   0  0  0  0  0  0  0  0  0  0  0  0
    1.5696   -1.2922   29.8015 C   0  0  0  0  0  0  0  0  0  0  0  0
    0.4526   -2.1158   30.2329 N   0  0  0  0  0  0  0  0  0  0  0  0
    0.4983   -3.3413   30.8427 C   0  0  0  0  0  0  0  0  0  0  0  0
    1.9528   -4.0872   31.4281 S   0  0  0  0  0  0  0  0  0  0  0  0
    1.1882   -5.4125   32.1993 C   0  0  0  0  0  0  0  0  0  0  0  0
    0.6949   -6.3511   31.3909 C   0  0  0  0  0  0  0  0  0  0  0  0
   -0.1084   -7.3406   31.8375 N   0  0  0  0  0  0  0  0  0  0  0  0
   -1.1637   -7.8278   31.1280 N   0  0  0  0  0  0  0  0  0  0  0  0
   -2.1263   -7.9928   32.0820 C   0  0  0  0  0  0  0  0  0  0  0  0
   -1.8058   -7.7126   33.3054 N   0  0  0  0  0  0  0  0  0  0  0  0
   -0.5097   -7.3115   33.1884 N   0  0  0  0  0  0  0  0  0  0  0  0
    0.0420   -6.4158   34.1138 C   0  0  0  0  0  0  0  0  0  0  0  0
   -0.2195   -6.4376   35.3221 O   0  0  0  0  0  0  0  0  0  0  0  0
    0.9316   -5.4609   33.5652 N   0  0  0  0  0  0  0  0  0  0  0  0
    1.5080   -4.4983   34.5009 C   0  0  0  0  0  0  0  0  0  0  0  0
    2.8475   -5.0700   34.9913 C   0  0  0  0  0  0  0  0  0  0  0  0
    3.8568   -4.8698   34.4398 O   0  0  0  0  0  0  0  0  0  0  0  0
    2.5388   -5.9402   36.2339 N   0  0  0  0  0  0  0  0  0  0  0  0
    3.3867   -6.8141   36.9935 C   0  0  0  0  0  0  0  0  0  0  0  0
    2.8425   -7.1264   38.3581 C   0  0  0  0  0  0  0  0  0  0  0  0
    3.6900   -7.0999   39.4756 C   0  0  0  0  0  0  0  0  0  0  0  0
    3.2129   -7.4529   40.7398 C   0  0  0  0  0  0  0  0  0  0  0  0
    1.8849   -7.8369   40.9027 C   0  0  0  0  0  0  0  0  0  0  0  0
    1.0340   -7.8696   39.8029 C   0  0  0  0  0  0  0  0  0  0  0  0
    1.5096   -7.5248   38.5379 C   0  0  0  0  0  0  0  0  0  0  0  0
   -0.7148   -3.8327   30.9391 N   0  0  0  0  0  0  0  0  0  0  0  0
   -1.5830   -2.9073   30.4236 N   0  0  0  0  0  0  0  0  0  0  0  0
   -0.8879   -1.8608   30.0163 C   0  0  0  0  0  0  0  0  0  0  0  0
   -1.4384   -0.6611   29.4088 C   0  0  0  0  0  0  0  0  0  0  0  0
   -2.0421   -0.7086   28.1538 C   0  0  0  0  0  0  0  0  0  0  0  0
   -2.5294    0.4595   27.5735 C   0  0  0  0  0  0  0  0  0  0  0  0
   -2.4074    1.6435   28.2804 C   0  0  0  0  0  0  0  0  0  0  0  0
   -1.8467    1.7304   29.5068 N   0  0  0  0  0  0  0  0  0  0  0  0
   -1.3900    0.5737   30.0465 C   0  0  0  0  0  0  0  0  0  0  0  0
    1.7628    1.4837   29.9223 H   0  0  0  0  0  0  0  0  0  0  0  0
    2.4895    1.5495   31.6261 H   0  0  0  0  0  0  0  0  0  0  0  0
    2.4371   -0.8574   31.8006 H   0  0  0  0  0  0  0  0  0  0  0  0
    2.3749   -1.9574   29.4718 H   0  0  0  0  0  0  0  0  0  0  0  0
    1.2566   -0.7297   28.9147 H   0  0  0  0  0  0  0  0  0  0  0  0
    0.8066   -6.3265   30.3129 H   0  0  0  0  0  0  0  0  0  0  0  0
   -1.4690   -7.2165   30.3743 H   0  0  0  0  0  0  0  0  0  0  0  0
   -3.1262   -8.2291   31.7181 H   0  0  0  0  0  0  0  0  0  0  0  0
    1.6775   -3.5179   34.0472 H   0  0  0  0  0  0  0  0  0  0  0  0
    0.8347   -4.3146   35.3454 H   0  0  0  0  0  0  0  0  0  0  0  0
    1.5314   -5.9558   36.3976 H   0  0  0  0  0  0  0  0  0  0  0  0
    4.3723   -6.3395   37.0487 H   0  0  0  0  0  0  0  0  0  0  0  0
    3.5049   -7.7400   36.4208 H   0  0  0  0  0  0  0  0  0  0  0  0
    4.7332   -6.8113   39.3695 H   0  0  0  0  0  0  0  0  0  0  0  0
    3.8796   -7.4347   41.5977 H   0  0  0  0  0  0  0  0  0  0  0  0
    1.5142   -8.1286   41.8815 H   0  0  0  0  0  0  0  0  0  0  0  0
    0.0070   -8.2057   39.9222 H   0  0  0  0  0  0  0  0  0  0  0  0
    0.8270   -7.6095   37.6946 H   0  0  0  0  0  0  0  0  0  0  0  0
   -2.1314   -1.6492   27.6160 H   0  0  0  0  0  0  0  0  0  0  0  0
   -2.9876    0.4360   26.5907 H   0  0  0  0  0  0  0  0  0  0  0  0
   -2.7716    2.5804   27.8687 H   0  0  0  0  0  0  0  0  0  0  0  0
   -0.9698    0.6785   31.0434 H   0  0  0  0  0  0  0  0  0  0  0  0
  1  2  2  0
  2  3  1  0
  3  4  1  0
  4  5  1  0
  5  6  1  0
  6  7  1  0
  7  8  2  0
  8  9  1  0
  9 10  1  0
 10 11  1  0
 11 12  2  0
 12 13  1  0
 13 14  1  0
 14 15  2  0
 14 16  1  0
 16 17  1  0
 17 18  1  0
 18 19  2  0
 18 20  1  0
 20 21  1  0
 21 22  1  0
 22 23  2  0
 23 24  1  0
 24 25  2  0
 25 26  1  0
 26 27  2  0
  5 28  2  0
 28 29  1  0
 29 30  2  0
 30 31  1  0
 31 32  2  0
 32 33  1  0
 33 34  2  0
 34 35  1  0
 35 36  2  0
 30  4  1  0
 36 31  1  0
 16  7  1  0
 27 22  1  0
 13  9  1  0
  1 37  1  0
  1 38  1  0
  2 39  1  0
  3 40  1  0
  3 41  1  0
  8 42  1  0
 10 43  1  0
 11 44  1  0
 17 45  1  0
 17 46  1  0
 20 47  1  0
 21 48  1  0
 21 49  1  0
 23 50  1  0
 24 51  1  0
 25 52  1  0
 26 53  1  0
 27 54  1  0
 32 55  1  0
 33 56  1  0
 34 57  1  0
 36 58  1  0
M  END
>  <Energy>  (240) 
115.50472940869123

>  <compound_id>  (240) 
4014

>  <target_id>  (240) 
1

>  <reference_id>  (240) 
140

>  <inspiration_ids>  (240) 
[140, 149]

>  <energy_score>  (240) 
-32.47690449622547

>  <distance_score>  (240) 
1.4986455637079987

>  <path>  (240) 
/opt/xchem-fragalysis-2/maxwin/BulkDock/SCRATCH/505735/C4014-P140/C4014-P140.minimised.mol

>  <scratch_subdir>  (240) 
/opt/xchem-fragalysis-2/maxwin/BulkDock/SCRATCH/505735/C4014-P140

>  <fragmenstein_runtime>  (240) 
9.399526834487915

>  <fragmenstein_outcome>  (240) 
too moved

>  <fragmenstein_mode>  (240) 
expansion

>  <fragmenstein_error>  (240) 


$$$$
C4014-P149
     RDKit          3D

 58 62  0  0  0  0  0  0  0  0999 V2000
    2.6058   -3.4747   28.3067 C   0  0  0  0  0  0  0  0  0  0  0  0
    2.8718   -2.5870   29.2726 C   0  0  0  0  0  0  0  0  0  0  0  0
    1.9621   -2.0856   30.3585 C   0  0  0  0  0  0  0  0  0  0  0  0
    0.6245   -2.6554   30.4234 N   0  0  0  0  0  0  0  0  0  0  0  0
    0.2702   -3.8969   30.8813 C   0  0  0  0  0  0  0  0  0  0  0  0
    1.3733   -5.1621   31.2527 S   0  0  0  0  0  0  0  0  0  0  0  0
    0.4529   -5.8567   32.5204 C   0  0  0  0  0  0  0  0  0  0  0  0
   -0.4460   -6.8005   32.2003 C   0  0  0  0  0  0  0  0  0  0  0  0
   -1.3164   -7.2733   33.1202 N   0  0  0  0  0  0  0  0  0  0  0  0
   -2.0926   -8.3722   33.1525 N   0  0  0  0  0  0  0  0  0  0  0  0
   -2.5348   -8.4006   34.4499 C   0  0  0  0  0  0  0  0  0  0  0  0
   -2.0441   -7.5140   35.2561 N   0  0  0  0  0  0  0  0  0  0  0  0
   -1.2443   -6.8076   34.4233 N   0  0  0  0  0  0  0  0  0  0  0  0
   -0.2512   -5.9558   34.8561 C   0  0  0  0  0  0  0  0  0  0  0  0
   -0.0708   -5.6841   36.0463 O   0  0  0  0  0  0  0  0  0  0  0  0
    0.5807   -5.4331   33.8458 N   0  0  0  0  0  0  0  0  0  0  0  0
    1.6150   -4.5067   34.3025 C   0  0  0  0  0  0  0  0  0  0  0  0
    2.9004   -5.2780   34.6609 C   0  0  0  0  0  0  0  0  0  0  0  0
    3.7944   -5.3690   33.9143 O   0  0  0  0  0  0  0  0  0  0  0  0
    2.6933   -5.9094   36.0620 N   0  0  0  0  0  0  0  0  0  0  0  0
    3.5799   -6.7014   36.8685 C   0  0  0  0  0  0  0  0  0  0  0  0
    2.9686   -7.1446   38.1703 C   0  0  0  0  0  0  0  0  0  0  0  0
    3.7014   -7.0532   39.3634 C   0  0  0  0  0  0  0  0  0  0  0  0
    3.1577   -7.4974   40.5720 C   0  0  0  0  0  0  0  0  0  0  0  0
    1.8770   -8.0430   40.6035 C   0  0  0  0  0  0  0  0  0  0  0  0
    1.1443   -8.1523   39.4258 C   0  0  0  0  0  0  0  0  0  0  0  0
    1.6875   -7.7143   38.2169 C   0  0  0  0  0  0  0  0  0  0  0  0
   -1.0285   -3.9736   31.0102 N   0  0  0  0  0  0  0  0  0  0  0  0
   -1.5605   -2.7953   30.5674 N   0  0  0  0  0  0  0  0  0  0  0  0
   -0.5721   -2.0014   30.1969 C   0  0  0  0  0  0  0  0  0  0  0  0
   -0.7418   -0.6791   29.6224 C   0  0  0  0  0  0  0  0  0  0  0  0
   -1.2605   -0.5303   28.3367 C   0  0  0  0  0  0  0  0  0  0  0  0
   -1.4219    0.7442   27.8004 C   0  0  0  0  0  0  0  0  0  0  0  0
   -1.0608    1.8338   28.5754 C   0  0  0  0  0  0  0  0  0  0  0  0
   -0.5690    1.7329   29.8303 N   0  0  0  0  0  0  0  0  0  0  0  0
   -0.4412    0.4798   30.3294 C   0  0  0  0  0  0  0  0  0  0  0  0
    3.3699   -3.7411   27.5816 H   0  0  0  0  0  0  0  0  0  0  0  0
    1.6322   -3.9397   28.2021 H   0  0  0  0  0  0  0  0  0  0  0  0
    3.8736   -2.1572   29.2944 H   0  0  0  0  0  0  0  0  0  0  0  0
    2.4274   -2.2703   31.3343 H   0  0  0  0  0  0  0  0  0  0  0  0
    1.8757   -1.0004   30.2606 H   0  0  0  0  0  0  0  0  0  0  0  0
   -0.5840   -7.1934   31.2012 H   0  0  0  0  0  0  0  0  0  0  0  0
   -2.8193   -8.5164   32.4541 H   0  0  0  0  0  0  0  0  0  0  0  0
   -3.3157   -9.1070   34.7419 H   0  0  0  0  0  0  0  0  0  0  0  0
    1.8453   -3.7489   33.5480 H   0  0  0  0  0  0  0  0  0  0  0  0
    1.2761   -3.9435   35.1802 H   0  0  0  0  0  0  0  0  0  0  0  0
    1.7534   -5.6845   36.4036 H   0  0  0  0  0  0  0  0  0  0  0  0
    4.4782   -6.0967   37.0340 H   0  0  0  0  0  0  0  0  0  0  0  0
    3.8817   -7.5742   36.2794 H   0  0  0  0  0  0  0  0  0  0  0  0
    4.7036   -6.6303   39.3619 H   0  0  0  0  0  0  0  0  0  0  0  0
    3.7335   -7.4130   41.4897 H   0  0  0  0  0  0  0  0  0  0  0  0
    1.4505   -8.3872   41.5413 H   0  0  0  0  0  0  0  0  0  0  0  0
    0.1525   -8.5975   39.4362 H   0  0  0  0  0  0  0  0  0  0  0  0
    1.0926   -7.8350   37.3125 H   0  0  0  0  0  0  0  0  0  0  0  0
   -1.5474   -1.4018   27.7495 H   0  0  0  0  0  0  0  0  0  0  0  0
   -1.8243    0.8735   26.8018 H   0  0  0  0  0  0  0  0  0  0  0  0
   -1.1675    2.8471   28.1989 H   0  0  0  0  0  0  0  0  0  0  0  0
   -0.0792    0.4393   31.3532 H   0  0  0  0  0  0  0  0  0  0  0  0
  1  2  2  0
  2  3  1  0
  3  4  1  0
  4  5  1  0
  5  6  1  0
  6  7  1  0
  7  8  2  0
  8  9  1  0
  9 10  1  0
 10 11  1  0
 11 12  2  0
 12 13  1  0
 13 14  1  0
 14 15  2  0
 14 16  1  0
 16 17  1  0
 17 18  1  0
 18 19  2  0
 18 20  1  0
 20 21  1  0
 21 22  1  0
 22 23  2  0
 23 24  1  0
 24 25  2  0
 25 26  1  0
 26 27  2  0
  5 28  2  0
 28 29  1  0
 29 30  2  0
 30 31  1  0
 31 32  2  0
 32 33  1  0
 33 34  2  0
 34 35  1  0
 35 36  2  0
 30  4  1  0
 36 31  1  0
 16  7  1  0
 27 22  1  0
 13  9  1  0
  1 37  1  0
  1 38  1  0
  2 39  1  0
  3 40  1  0
  3 41  1  0
  8 42  1  0
 10 43  1  0
 11 44  1  0
 17 45  1  0
 17 46  1  0
 20 47  1  0
 21 48  1  0
 21 49  1  0
 23 50  1  0
 24 51  1  0
 25 52  1  0
 26 53  1  0
 27 54  1  0
 32 55  1  0
 33 56  1  0
 34 57  1  0
 36 58  1  0
M  END
>  <Energy>  (241) 
113.95556780999983

>  <compound_id>  (241) 
4014

>  <target_id>  (241) 
1

>  <reference_id>  (241) 
149

>  <inspiration_ids>  (241) 
[140, 149]

>  <energy_score>  (241) 
-34.02606609492051

>  <distance_score>  (241) 
1.659995727564929

>  <path>  (241) 
/opt/xchem-fragalysis-2/maxwin/BulkDock/SCRATCH/505735/C4014-P149/C4014-P149.minimised.mol

>  <scratch_subdir>  (241) 
/opt/xchem-fragalysis-2/maxwin/BulkDock/SCRATCH/505735/C4014-P149

>  <fragmenstein_runtime>  (241) 
15.296058177947998

>  <fragmenstein_outcome>  (241) 
too moved

>  <fragmenstein_mode>  (241) 
expansion

>  <fragmenstein_error>  (241) 


$$$$
C4014-P140
     RDKit          2D

  0  0  0  0  0  0  0  0  0  0999 V2000
M  END
>  <compound_id>  (242) 
4014

>  <target_id>  (242) 
1

>  <reference_id>  (242) 
140

>  <inspiration_ids>  (242) 
[140, 150]

>  <energy_score>  (242) 
nan

>  <distance_score>  (242) 
nan

>  <path>  (242) 
/opt/xchem-fragalysis-2/maxwin/BulkDock/SCRATCH/505735/C4014-P140/C4014-P140.minimised.mol

>  <scratch_subdir>  (242) 
/opt/xchem-fragalysis-2/maxwin/BulkDock/SCRATCH/505735/C4014-P140

>  <fragmenstein_runtime>  (242) 
0.6767997741699219

>  <fragmenstein_outcome>  (242) 
crashed

>  <fragmenstein_mode>  (242) 
expansion

>  <fragmenstein_error>  (242) 
PoisonError: None has poison atoms [8, 12, 13, 14, 11, 12, 13, 14, 12, 11, 13, 14, 12, 8, 13, 14, 27, 4, 22, 23, 27, 4, 22, 23, 27, 4, 5, 6, 27, 4, 5, 6]

$$$$
C4018-P140
     RDKit          3D

 58 58  0  0  0  0  0  0  0  0999 V2000
   -0.1036   -4.3158   30.9967 C   0  0  0  0  0  0  0  0  0  0  0  0
    0.5849   -5.4535   30.2686 C   0  0  0  0  0  0  0  0  0  0  0  0
   -0.1455   -6.8098   30.1555 C   0  0  0  0  0  0  0  0  0  0  0  0
   -0.4136   -7.6459   31.3067 N   0  0  0  0  0  0  0  0  0  0  0  0
   -1.4781   -7.2182   32.1728 C   0  0  0  0  0  0  0  0  0  0  0  0
   -1.0295   -7.2857   33.6284 C   0  0  0  0  0  0  0  0  0  0  0  0
    0.0623   -6.2788   34.0174 C   0  0  0  0  0  0  0  0  0  0  0  0
    1.3683   -6.3771   33.2350 C   0  0  0  0  0  0  0  0  0  0  0  0
    1.9533   -5.0945   33.0211 O   0  0  0  0  0  0  0  0  0  0  0  0
    0.4970   -6.4111   35.4988 C   0  0  0  0  0  0  0  0  0  0  0  0
    1.6165   -5.3635   35.8623 C   0  0  0  0  0  0  0  0  0  0  0  0
    1.0981   -3.9143   35.6706 C   0  0  0  0  0  0  0  0  0  0  0  0
   -0.2847   -3.7324   36.1134 N   0  0  0  0  0  0  0  0  0  0  0  0
    2.1573   -5.5112   37.2171 N   0  0  0  0  0  0  0  0  0  0  0  0
    2.9657   -6.7122   37.3891 C   0  0  0  0  0  0  0  0  0  0  0  0
    2.8008   -7.3805   38.7610 C   0  0  0  0  0  0  0  0  0  0  0  0
    3.4940   -6.6051   39.8849 C   0  0  0  0  0  0  0  0  0  0  0  0
    3.3589   -7.3411   41.2173 C   0  0  0  0  0  0  0  0  0  0  0  0
    1.9015   -7.6371   41.5588 C   0  0  0  0  0  0  0  0  0  0  0  0
    1.2022   -8.3849   40.4322 C   0  0  0  0  0  0  0  0  0  0  0  0
    1.3256   -7.6325   39.1159 C   0  0  0  0  0  0  0  0  0  0  0  0
   -0.4172   -4.5531   32.0042 H   0  0  0  0  0  0  0  0  0  0  0  0
    0.5693   -3.4533   31.0542 H   0  0  0  0  0  0  0  0  0  0  0  0
   -0.9884   -3.9881   30.4445 H   0  0  0  0  0  0  0  0  0  0  0  0
    1.5942   -5.6031   30.6571 H   0  0  0  0  0  0  0  0  0  0  0  0
    0.7691   -5.0928   29.2500 H   0  0  0  0  0  0  0  0  0  0  0  0
   -1.0562   -6.7164   29.5644 H   0  0  0  0  0  0  0  0  0  0  0  0
    0.5473   -7.4367   29.5871 H   0  0  0  0  0  0  0  0  0  0  0  0
   -0.5442   -8.6202   31.0255 H   0  0  0  0  0  0  0  0  0  0  0  0
   -1.7883   -6.2005   31.9521 H   0  0  0  0  0  0  0  0  0  0  0  0
   -2.3406   -7.8718   32.0186 H   0  0  0  0  0  0  0  0  0  0  0  0
   -1.8972   -7.1302   34.2794 H   0  0  0  0  0  0  0  0  0  0  0  0
   -0.6575   -8.2708   33.8448 H   0  0  0  0  0  0  0  0  0  0  0  0
   -0.3734   -5.2892   33.8782 H   0  0  0  0  0  0  0  0  0  0  0  0
    1.3206   -6.8520   32.2809 H   0  0  0  0  0  0  0  0  0  0  0  0
    2.1005   -6.9536   33.8025 H   0  0  0  0  0  0  0  0  0  0  0  0
    2.8228   -5.2257   32.6089 H   0  0  0  0  0  0  0  0  0  0  0  0
    0.8594   -7.4307   35.6688 H   0  0  0  0  0  0  0  0  0  0  0  0
   -0.3712   -6.3003   36.1602 H   0  0  0  0  0  0  0  0  0  0  0  0
    2.4986   -5.4658   35.2270 H   0  0  0  0  0  0  0  0  0  0  0  0
    1.7398   -3.2194   36.2275 H   0  0  0  0  0  0  0  0  0  0  0  0
    1.1639   -3.5908   34.6293 H   0  0  0  0  0  0  0  0  0  0  0  0
   -0.9343   -4.0560   35.3980 H   0  0  0  0  0  0  0  0  0  0  0  0
   -0.4677   -2.7322   36.1928 H   0  0  0  0  0  0  0  0  0  0  0  0
    1.3825   -5.4388   37.8732 H   0  0  0  0  0  0  0  0  0  0  0  0
    2.7323   -7.4705   36.6339 H   0  0  0  0  0  0  0  0  0  0  0  0
    4.0186   -6.4508   37.2292 H   0  0  0  0  0  0  0  0  0  0  0  0
    3.2971   -8.3594   38.6882 H   0  0  0  0  0  0  0  0  0  0  0  0
    4.5574   -6.4737   39.6528 H   0  0  0  0  0  0  0  0  0  0  0  0
    3.0606   -5.6017   39.9789 H   0  0  0  0  0  0  0  0  0  0  0  0
    3.8086   -6.7400   42.0158 H   0  0  0  0  0  0  0  0  0  0  0  0
    3.9212   -8.2821   41.1728 H   0  0  0  0  0  0  0  0  0  0  0  0
    1.3749   -6.6950   41.7554 H   0  0  0  0  0  0  0  0  0  0  0  0
    1.8523   -8.2277   42.4806 H   0  0  0  0  0  0  0  0  0  0  0  0
    0.1450   -8.5255   40.6832 H   0  0  0  0  0  0  0  0  0  0  0  0
    1.6514   -9.3796   40.3345 H   0  0  0  0  0  0  0  0  0  0  0  0
    0.8347   -8.1878   38.3130 H   0  0  0  0  0  0  0  0  0  0  0  0
    0.7734   -6.6930   39.2282 H   0  0  0  0  0  0  0  0  0  0  0  0
  1  2  1  0
  2  3  1  0
  3  4  1  0
  4  5  1  0
  5  6  1  0
  6  7  1  0
  7  8  1  0
  8  9  1  0
  7 10  1  0
 10 11  1  0
 11 12  1  0
 12 13  1  0
 11 14  1  0
 14 15  1  0
 15 16  1  0
 16 17  1  0
 17 18  1  0
 18 19  1  0
 19 20  1  0
 20 21  1  0
 21 16  1  0
  1 22  1  0
  1 23  1  0
  1 24  1  0
  2 25  1  0
  2 26  1  0
  3 27  1  0
  3 28  1  0
  4 29  1  0
  5 30  1  0
  5 31  1  0
  6 32  1  0
  6 33  1  0
  7 34  1  0
  8 35  1  0
  8 36  1  0
  9 37  1  0
 10 38  1  0
 10 39  1  0
 11 40  1  0
 12 41  1  0
 12 42  1  0
 13 43  1  0
 13 44  1  0
 14 45  1  0
 15 46  1  0
 15 47  1  0
 16 48  1  0
 17 49  1  0
 17 50  1  0
 18 51  1  0
 18 52  1  0
 19 53  1  0
 19 54  1  0
 20 55  1  0
 20 56  1  0
 21 57  1  0
 21 58  1  0
M  END
>  <Energy>  (243) 
64.227465740634173

>  <compound_id>  (243) 
4018

>  <target_id>  (243) 
1

>  <reference_id>  (243) 
140

>  <inspiration_ids>  (243) 
[140, 158]

>  <energy_score>  (243) 
-59.2956789299798

>  <distance_score>  (243) 
2.0080533388898925

>  <path>  (243) 
/opt/xchem-fragalysis-2/maxwin/BulkDock/SCRATCH/505735/C4018-P140/C4018-P140.minimised.mol

>  <scratch_subdir>  (243) 
/opt/xchem-fragalysis-2/maxwin/BulkDock/SCRATCH/505735/C4018-P140

>  <fragmenstein_runtime>  (243) 
8.227065801620483

>  <fragmenstein_outcome>  (243) 
too moved

>  <fragmenstein_mode>  (243) 
expansion

>  <fragmenstein_error>  (243) 


$$$$
C4018-P158
     RDKit          3D

 58 58  0  0  0  0  0  0  0  0999 V2000
   -0.1390   -4.5238   31.2209 C   0  0  0  0  0  0  0  0  0  0  0  0
    0.4716   -5.7282   30.5330 C   0  0  0  0  0  0  0  0  0  0  0  0
   -0.3572   -7.0311   30.4095 C   0  0  0  0  0  0  0  0  0  0  0  0
   -0.6084   -7.8632   31.5727 N   0  0  0  0  0  0  0  0  0  0  0  0
   -1.6216   -7.4552   32.5080 C   0  0  0  0  0  0  0  0  0  0  0  0
   -1.1794   -7.5144   33.9837 C   0  0  0  0  0  0  0  0  0  0  0  0
   -0.0544   -6.5141   34.3017 C   0  0  0  0  0  0  0  0  0  0  0  0
    1.2552   -6.8307   33.6096 C   0  0  0  0  0  0  0  0  0  0  0  0
    1.9878   -7.9028   34.2104 O   0  0  0  0  0  0  0  0  0  0  0  0
    0.2757   -6.2527   35.7851 C   0  0  0  0  0  0  0  0  0  0  0  0
    1.5141   -5.2797   35.9097 C   0  0  0  0  0  0  0  0  0  0  0  0
    1.3027   -3.9590   35.1051 C   0  0  0  0  0  0  0  0  0  0  0  0
    0.0120   -3.3190   35.3131 N   0  0  0  0  0  0  0  0  0  0  0  0
    1.8684   -4.9127   37.2730 N   0  0  0  0  0  0  0  0  0  0  0  0
    2.9059   -5.7170   37.9094 C   0  0  0  0  0  0  0  0  0  0  0  0
    2.4173   -7.0153   38.5745 C   0  0  0  0  0  0  0  0  0  0  0  0
    3.5635   -7.6043   39.4177 C   0  0  0  0  0  0  0  0  0  0  0  0
    3.1358   -8.8359   40.2063 C   0  0  0  0  0  0  0  0  0  0  0  0
    1.9000   -8.5689   41.0549 C   0  0  0  0  0  0  0  0  0  0  0  0
    0.7560   -8.0227   40.2156 C   0  0  0  0  0  0  0  0  0  0  0  0
    1.1710   -6.7812   39.4439 C   0  0  0  0  0  0  0  0  0  0  0  0
   -0.6212   -4.7441   32.1631 H   0  0  0  0  0  0  0  0  0  0  0  0
    0.6333   -3.7698   31.4067 H   0  0  0  0  0  0  0  0  0  0  0  0
   -0.8872   -4.0561   30.5739 H   0  0  0  0  0  0  0  0  0  0  0  0
    1.4359   -5.9385   30.9944 H   0  0  0  0  0  0  0  0  0  0  0  0
    0.7365   -5.4078   29.5185 H   0  0  0  0  0  0  0  0  0  0  0  0
   -1.2675   -6.8974   29.8330 H   0  0  0  0  0  0  0  0  0  0  0  0
    0.2473   -7.6898   29.7845 H   0  0  0  0  0  0  0  0  0  0  0  0
   -0.7516   -8.8375   31.3033 H   0  0  0  0  0  0  0  0  0  0  0  0
   -1.8844   -6.4265   32.3038 H   0  0  0  0  0  0  0  0  0  0  0  0
   -2.5119   -8.0748   32.3683 H   0  0  0  0  0  0  0  0  0  0  0  0
   -2.0451   -7.2757   34.6115 H   0  0  0  0  0  0  0  0  0  0  0  0
   -0.8732   -8.5121   34.2669 H   0  0  0  0  0  0  0  0  0  0  0  0
   -0.4196   -5.5703   33.9065 H   0  0  0  0  0  0  0  0  0  0  0  0
    1.9433   -5.9890   33.5363 H   0  0  0  0  0  0  0  0  0  0  0  0
    1.1170   -7.0711   32.5824 H   0  0  0  0  0  0  0  0  0  0  0  0
    2.0329   -7.7762   35.1732 H   0  0  0  0  0  0  0  0  0  0  0  0
    0.4709   -7.1946   36.3085 H   0  0  0  0  0  0  0  0  0  0  0  0
   -0.6003   -5.8187   36.2835 H   0  0  0  0  0  0  0  0  0  0  0  0
    2.4115   -5.7401   35.4898 H   0  0  0  0  0  0  0  0  0  0  0  0
    2.0913   -3.2417   35.3677 H   0  0  0  0  0  0  0  0  0  0  0  0
    1.4218   -4.1117   34.0304 H   0  0  0  0  0  0  0  0  0  0  0  0
   -0.7731   -3.9191   35.0679 H   0  0  0  0  0  0  0  0  0  0  0  0
   -0.0901   -3.1176   36.3075 H   0  0  0  0  0  0  0  0  0  0  0  0
    1.0474   -4.7907   37.8594 H   0  0  0  0  0  0  0  0  0  0  0  0
    3.7280   -5.9296   37.2146 H   0  0  0  0  0  0  0  0  0  0  0  0
    3.3464   -5.0772   38.6850 H   0  0  0  0  0  0  0  0  0  0  0  0
    2.1609   -7.7412   37.7924 H   0  0  0  0  0  0  0  0  0  0  0  0
    4.4066   -7.8659   38.7668 H   0  0  0  0  0  0  0  0  0  0  0  0
    3.9325   -6.8484   40.1232 H   0  0  0  0  0  0  0  0  0  0  0  0
    3.9597   -9.1653   40.8496 H   0  0  0  0  0  0  0  0  0  0  0  0
    2.9310   -9.6573   39.5108 H   0  0  0  0  0  0  0  0  0  0  0  0
    2.1484   -7.8520   41.8471 H   0  0  0  0  0  0  0  0  0  0  0  0
    1.5860   -9.4947   41.5499 H   0  0  0  0  0  0  0  0  0  0  0  0
   -0.0964   -7.7877   40.8632 H   0  0  0  0  0  0  0  0  0  0  0  0
    0.4150   -8.7842   39.5091 H   0  0  0  0  0  0  0  0  0  0  0  0
    0.3179   -6.4782   38.8273 H   0  0  0  0  0  0  0  0  0  0  0  0
    1.3607   -5.9643   40.1522 H   0  0  0  0  0  0  0  0  0  0  0  0
  1  2  1  0
  2  3  1  0
  3  4  1  0
  4  5  1  0
  5  6  1  0
  6  7  1  0
  7  8  1  0
  8  9  1  0
  7 10  1  0
 10 11  1  0
 11 12  1  0
 12 13  1  0
 11 14  1  0
 14 15  1  0
 15 16  1  0
 16 17  1  0
 17 18  1  0
 18 19  1  0
 19 20  1  0
 20 21  1  0
 21 16  1  0
  1 22  1  0
  1 23  1  0
  1 24  1  0
  2 25  1  0
  2 26  1  0
  3 27  1  0
  3 28  1  0
  4 29  1  0
  5 30  1  0
  5 31  1  0
  6 32  1  0
  6 33  1  0
  7 34  1  0
  8 35  1  0
  8 36  1  0
  9 37  1  0
 10 38  1  0
 10 39  1  0
 11 40  1  0
 12 41  1  0
 12 42  1  0
 13 43  1  0
 13 44  1  0
 14 45  1  0
 15 46  1  0
 15 47  1  0
 16 48  1  0
 17 49  1  0
 17 50  1  0
 18 51  1  0
 18 52  1  0
 19 53  1  0
 19 54  1  0
 20 55  1  0
 20 56  1  0
 21 57  1  0
 21 58  1  0
M  END
>  <Energy>  (244) 
67.576223633439014

>  <compound_id>  (244) 
4018

>  <target_id>  (244) 
1

>  <reference_id>  (244) 
158

>  <inspiration_ids>  (244) 
[140, 158]

>  <energy_score>  (244) 
-55.94692103717483

>  <distance_score>  (244) 
1.9456724529855076

>  <path>  (244) 
/opt/xchem-fragalysis-2/maxwin/BulkDock/SCRATCH/505735/C4018-P158/C4018-P158.minimised.mol

>  <scratch_subdir>  (244) 
/opt/xchem-fragalysis-2/maxwin/BulkDock/SCRATCH/505735/C4018-P158

>  <fragmenstein_runtime>  (244) 
7.771008491516113

>  <fragmenstein_outcome>  (244) 
too moved

>  <fragmenstein_mode>  (244) 
expansion

>  <fragmenstein_error>  (244) 


$$$$
C4019-P140
     RDKit          3D

 47 50  0  0  0  0  0  0  0  0999 V2000
    2.7000   -7.6448   34.6348 O   0  0  0  0  0  0  0  0  0  0  0  0
    2.7564   -6.6018   35.1578 C   0  0  0  0  0  0  0  0  0  0  0  0
    2.1187   -5.3322   34.5573 C   0  0  0  0  0  0  0  0  0  0  0  0
    1.0167   -5.7121   33.6160 C   0  0  0  0  0  0  0  0  0  0  0  0
    1.1797   -5.7248   32.2768 C   0  0  0  0  0  0  0  0  0  0  0  0
    0.0651   -6.5267   31.8129 C   0  0  0  0  0  0  0  0  0  0  0  0
   -0.3946   -7.0222   30.7255 N   0  0  0  0  0  0  0  0  0  0  0  0
   -1.5766   -7.7570   31.1611 N   0  0  0  0  0  0  0  0  0  0  0  0
   -1.7623   -7.6437   32.4150 N   0  0  0  0  0  0  0  0  0  0  0  0
   -0.7649   -6.8990   32.9098 C   0  0  0  0  0  0  0  0  0  0  0  0
   -0.2576   -6.3266   33.9931 C   0  0  0  0  0  0  0  0  0  0  0  0
   -0.9942   -6.4006   35.2868 C   0  0  0  0  0  0  0  0  0  0  0  0
   -1.9417   -7.0896   35.3823 O   0  0  0  0  0  0  0  0  0  0  0  0
   -0.2975   -5.5493   36.3205 N   0  0  0  0  0  0  0  0  0  0  0  0
   -0.8790   -4.1240   36.3527 C   0  0  0  0  0  0  0  0  0  0  0  0
   -0.0000   -2.9901   36.9506 C   0  0  0  0  0  0  0  0  0  0  0  0
    0.2208   -3.1734   38.3785 N   0  0  0  0  0  0  0  0  0  0  0  0
    0.4713   -4.5923   38.6185 C   0  0  0  0  0  0  0  0  0  0  0  0
   -0.5436   -5.4052   37.8083 C   0  0  0  0  0  0  0  0  0  0  0  0
    3.4876   -6.1662   36.4512 N   0  0  0  0  0  0  0  0  0  0  0  0
    4.2194   -6.9413   37.4163 C   0  0  0  0  0  0  0  0  0  0  0  0
    3.4109   -7.2045   38.6560 C   0  0  0  0  0  0  0  0  0  0  0  0
    3.9801   -7.0205   39.9224 C   0  0  0  0  0  0  0  0  0  0  0  0
    3.2569   -7.3215   41.0790 C   0  0  0  0  0  0  0  0  0  0  0  0
    1.9577   -7.8112   40.9861 C   0  0  0  0  0  0  0  0  0  0  0  0
    1.3837   -8.0044   39.7364 C   0  0  0  0  0  0  0  0  0  0  0  0
    2.1067   -7.7103   38.5793 C   0  0  0  0  0  0  0  0  0  0  0  0
    1.7716   -4.6500   35.3285 H   0  0  0  0  0  0  0  0  0  0  0  0
    2.9191   -4.8096   34.0177 H   0  0  0  0  0  0  0  0  0  0  0  0
    2.0126   -5.4127   31.6743 H   0  0  0  0  0  0  0  0  0  0  0  0
   -0.9481   -3.8620   35.2850 H   0  0  0  0  0  0  0  0  0  0  0  0
   -1.9410   -4.0745   36.6460 H   0  0  0  0  0  0  0  0  0  0  0  0
   -0.4917   -2.0257   36.7848 H   0  0  0  0  0  0  0  0  0  0  0  0
    0.9642   -2.9527   36.4333 H   0  0  0  0  0  0  0  0  0  0  0  0
    0.9961   -2.6051   38.7154 H   0  0  0  0  0  0  0  0  0  0  0  0
    1.4942   -4.8415   38.3216 H   0  0  0  0  0  0  0  0  0  0  0  0
    0.3629   -4.8017   39.6872 H   0  0  0  0  0  0  0  0  0  0  0  0
   -0.4003   -6.4411   38.1380 H   0  0  0  0  0  0  0  0  0  0  0  0
   -1.5854   -5.2434   38.1190 H   0  0  0  0  0  0  0  0  0  0  0  0
    3.2576   -5.2033   36.6617 H   0  0  0  0  0  0  0  0  0  0  0  0
    5.1281   -6.3775   37.6495 H   0  0  0  0  0  0  0  0  0  0  0  0
    4.5043   -7.8938   36.9575 H   0  0  0  0  0  0  0  0  0  0  0  0
    5.0000   -6.6561   40.0234 H   0  0  0  0  0  0  0  0  0  0  0  0
    3.7133   -7.1867   42.0564 H   0  0  0  0  0  0  0  0  0  0  0  0
    1.4006   -8.0676   41.8834 H   0  0  0  0  0  0  0  0  0  0  0  0
    0.3835   -8.4249   39.6602 H   0  0  0  0  0  0  0  0  0  0  0  0
    1.6433   -7.9078   37.6156 H   0  0  0  0  0  0  0  0  0  0  0  0
  1  2  2  0
  2  3  1  0
  3  4  1  0
  4  5  2  0
  5  6  1  0
  6  7  2  0
  7  8  1  0
  8  9  2  0
  9 10  1  0
 10 11  2  0
 11 12  1  0
 12 13  2  0
 12 14  1  0
 14 15  1  0
 15 16  1  0
 16 17  1  0
 17 18  1  0
 18 19  1  0
  2 20  1  0
 20 21  1  0
 21 22  1  0
 22 23  2  0
 23 24  1  0
 24 25  2  0
 25 26  1  0
 26 27  2  0
 11  4  1  0
 19 14  1  0
 27 22  1  0
 10  6  1  0
  3 28  1  0
  3 29  1  0
  5 30  1  0
 15 31  1  0
 15 32  1  0
 16 33  1  0
 16 34  1  0
 17 35  1  0
 18 36  1  0
 18 37  1  0
 19 38  1  0
 19 39  1  0
 20 40  1  0
 21 41  1  0
 21 42  1  0
 23 43  1  0
 24 44  1  0
 25 45  1  0
 26 46  1  0
 27 47  1  0
M  END
>  <Energy>  (245) 
180.27146936539074

>  <compound_id>  (245) 
4019

>  <target_id>  (245) 
1

>  <reference_id>  (245) 
140

>  <inspiration_ids>  (245) 
[140, 159]

>  <energy_score>  (245) 
51.32375911605138

>  <distance_score>  (245) 
1.2002550737982836

>  <path>  (245) 
/opt/xchem-fragalysis-2/maxwin/BulkDock/SCRATCH/505735/C4019-P140/C4019-P140.minimised.mol

>  <scratch_subdir>  (245) 
/opt/xchem-fragalysis-2/maxwin/BulkDock/SCRATCH/505735/C4019-P140

>  <fragmenstein_runtime>  (245) 
3.188508987426758

>  <fragmenstein_outcome>  (245) 
too moved

>  <fragmenstein_mode>  (245) 
expansion

>  <fragmenstein_error>  (245) 


$$$$
C4019-P159
     RDKit          3D

 47 50  0  0  0  0  0  0  0  0999 V2000
    4.6200   -5.2698   33.8628 O   0  0  0  0  0  0  0  0  0  0  0  0
    3.8254   -5.1018   34.7420 C   0  0  0  0  0  0  0  0  0  0  0  0
    2.6253   -4.1769   34.4793 C   0  0  0  0  0  0  0  0  0  0  0  0
    1.4766   -4.9784   33.9378 C   0  0  0  0  0  0  0  0  0  0  0  0
    1.2509   -5.1391   32.6161 C   0  0  0  0  0  0  0  0  0  0  0  0
    0.1664   -6.1007   32.5622 C   0  0  0  0  0  0  0  0  0  0  0  0
   -0.5206   -6.7573   31.7024 N   0  0  0  0  0  0  0  0  0  0  0  0
   -1.4239   -7.5648   32.5255 N   0  0  0  0  0  0  0  0  0  0  0  0
   -1.2470   -7.3383   33.7702 N   0  0  0  0  0  0  0  0  0  0  0  0
   -0.2523   -6.4411   33.8830 C   0  0  0  0  0  0  0  0  0  0  0  0
    0.5010   -5.7419   34.7256 C   0  0  0  0  0  0  0  0  0  0  0  0
    0.2913   -5.8482   36.2026 C   0  0  0  0  0  0  0  0  0  0  0  0
   -0.3754   -6.7571   36.6179 O   0  0  0  0  0  0  0  0  0  0  0  0
    0.9794   -4.8107   36.8976 N   0  0  0  0  0  0  0  0  0  0  0  0
    0.0653   -3.5865   37.0637 C   0  0  0  0  0  0  0  0  0  0  0  0
   -1.2657   -3.7729   37.8207 C   0  0  0  0  0  0  0  0  0  0  0  0
   -1.0426   -3.9958   39.2410 N   0  0  0  0  0  0  0  0  0  0  0  0
    0.0409   -4.9681   39.3553 C   0  0  0  0  0  0  0  0  0  0  0  0
    1.1886   -4.5807   38.3935 C   0  0  0  0  0  0  0  0  0  0  0  0
    3.7496   -5.6668   36.0521 N   0  0  0  0  0  0  0  0  0  0  0  0
    4.5471   -6.6828   36.6913 C   0  0  0  0  0  0  0  0  0  0  0  0
    3.8893   -7.2077   37.9380 C   0  0  0  0  0  0  0  0  0  0  0  0
    4.4368   -6.9524   39.2029 C   0  0  0  0  0  0  0  0  0  0  0  0
    3.8049   -7.4210   40.3582 C   0  0  0  0  0  0  0  0  0  0  0  0
    2.6184   -8.1453   40.2632 C   0  0  0  0  0  0  0  0  0  0  0  0
    2.0638   -8.4055   39.0136 C   0  0  0  0  0  0  0  0  0  0  0  0
    2.6981   -7.9455   37.8580 C   0  0  0  0  0  0  0  0  0  0  0  0
    2.3797   -3.5777   35.3570 H   0  0  0  0  0  0  0  0  0  0  0  0
    2.9517   -3.4408   33.7315 H   0  0  0  0  0  0  0  0  0  0  0  0
    1.7847   -4.7419   31.7708 H   0  0  0  0  0  0  0  0  0  0  0  0
    0.6108   -2.6696   37.3443 H   0  0  0  0  0  0  0  0  0  0  0  0
   -0.2413   -3.3566   36.0311 H   0  0  0  0  0  0  0  0  0  0  0  0
   -1.7841   -4.6310   37.3958 H   0  0  0  0  0  0  0  0  0  0  0  0
   -1.8991   -2.8904   37.6865 H   0  0  0  0  0  0  0  0  0  0  0  0
   -1.8923   -4.3892   39.6623 H   0  0  0  0  0  0  0  0  0  0  0  0
   -0.3243   -5.9777   39.1361 H   0  0  0  0  0  0  0  0  0  0  0  0
    0.4099   -4.9695   40.3863 H   0  0  0  0  0  0  0  0  0  0  0  0
    1.6861   -3.6272   38.6376 H   0  0  0  0  0  0  0  0  0  0  0  0
    1.9742   -5.3054   38.6246 H   0  0  0  0  0  0  0  0  0  0  0  0
    2.8888   -5.3567   36.4973 H   0  0  0  0  0  0  0  0  0  0  0  0
    4.7130   -7.4946   35.9741 H   0  0  0  0  0  0  0  0  0  0  0  0
    5.5267   -6.2423   36.9057 H   0  0  0  0  0  0  0  0  0  0  0  0
    5.3605   -6.3858   39.3003 H   0  0  0  0  0  0  0  0  0  0  0  0
    4.2410   -7.2244   41.3346 H   0  0  0  0  0  0  0  0  0  0  0  0
    2.1284   -8.5177   41.1597 H   0  0  0  0  0  0  0  0  0  0  0  0
    1.1383   -8.9743   38.9388 H   0  0  0  0  0  0  0  0  0  0  0  0
    2.2440   -8.1577   36.8938 H   0  0  0  0  0  0  0  0  0  0  0  0
  1  2  2  0
  2  3  1  0
  3  4  1  0
  4  5  2  0
  5  6  1  0
  6  7  2  0
  7  8  1  0
  8  9  2  0
  9 10  1  0
 10 11  2  0
 11 12  1  0
 12 13  2  0
 12 14  1  0
 14 15  1  0
 15 16  1  0
 16 17  1  0
 17 18  1  0
 18 19  1  0
  2 20  1  0
 20 21  1  0
 21 22  1  0
 22 23  2  0
 23 24  1  0
 24 25  2  0
 25 26  1  0
 26 27  2  0
 11  4  1  0
 19 14  1  0
 27 22  1  0
 10  6  1  0
  3 28  1  0
  3 29  1  0
  5 30  1  0
 15 31  1  0
 15 32  1  0
 16 33  1  0
 16 34  1  0
 17 35  1  0
 18 36  1  0
 18 37  1  0
 19 38  1  0
 19 39  1  0
 20 40  1  0
 21 41  1  0
 21 42  1  0
 23 43  1  0
 24 44  1  0
 25 45  1  0
 26 46  1  0
 27 47  1  0
M  END
>  <Energy>  (246) 
152.63488737729011

>  <compound_id>  (246) 
4019

>  <target_id>  (246) 
1

>  <reference_id>  (246) 
159

>  <inspiration_ids>  (246) 
[140, 159]

>  <energy_score>  (246) 
-29.7756108648812

>  <distance_score>  (246) 
1.4986947605927177

>  <path>  (246) 
/opt/xchem-fragalysis-2/maxwin/BulkDock/SCRATCH/505735/C4019-P159/C4019-P159.minimised.mol

>  <scratch_subdir>  (246) 
/opt/xchem-fragalysis-2/maxwin/BulkDock/SCRATCH/505735/C4019-P159

>  <fragmenstein_runtime>  (246) 
5.348049640655518

>  <fragmenstein_outcome>  (246) 
too moved

>  <fragmenstein_mode>  (246) 
expansion

>  <fragmenstein_error>  (246) 


$$$$
C4020-P140
     RDKit          3D

 91 95  0  0  0  0  0  0  0  0999 V2000
   -3.6708   -0.2224   34.9521 C   0  0  0  0  0  0  0  0  0  0  0  0
   -2.3532   -0.9461   34.7115 C   0  0  0  0  0  0  0  0  0  0  0  0
   -1.1778    0.0425   34.6413 C   0  0  0  0  0  0  0  0  0  0  0  0
    0.2198   -0.6174   34.4317 C   0  0  0  0  0  0  0  0  0  0  0  0
    0.8316   -1.2344   35.7567 C   0  0  0  0  0  0  0  0  0  0  0  0
    1.7510   -2.4508   35.4890 C   0  0  0  0  0  0  0  0  0  0  0  0
    0.9396   -3.7176   35.2320 C   0  0  0  0  0  0  0  0  0  0  0  0
    1.7791   -4.9272   34.8078 C   0  0  0  0  0  0  0  0  0  0  0  0
    3.0119   -5.1980   35.6578 C   0  0  0  0  0  0  0  0  0  0  0  0
    4.0759   -4.8341   35.2518 O   0  0  0  0  0  0  0  0  0  0  0  0
    2.6590   -5.8993   36.8469 N   0  0  0  0  0  0  0  0  0  0  0  0
    3.4757   -6.4706   37.8817 C   0  0  0  0  0  0  0  0  0  0  0  0
    2.7133   -6.7305   39.1464 C   0  0  0  0  0  0  0  0  0  0  0  0
    3.1333   -6.1612   40.3560 C   0  0  0  0  0  0  0  0  0  0  0  0
    2.4544   -6.4391   41.5436 C   0  0  0  0  0  0  0  0  0  0  0  0
    1.3507   -7.2888   41.5353 C   0  0  0  0  0  0  0  0  0  0  0  0
    0.9239   -7.8596   40.3400 C   0  0  0  0  0  0  0  0  0  0  0  0
    1.6003   -7.5826   39.1523 C   0  0  0  0  0  0  0  0  0  0  0  0
    0.0547   -4.0231   36.4124 C   0  0  0  0  0  0  0  0  0  0  0  0
   -0.2369   -5.1712   36.7375 O   0  0  0  0  0  0  0  0  0  0  0  0
   -0.4609   -2.9293   37.0581 N   0  0  0  0  0  0  0  0  0  0  0  0
   -0.1463   -1.6041   36.8753 C   0  0  0  0  0  0  0  0  0  0  0  0
   -0.6638   -0.7501   37.5940 O   0  0  0  0  0  0  0  0  0  0  0  0
    1.2361    0.3169   33.5605 C   0  0  0  0  0  0  0  0  0  0  0  0
    2.9750    0.4251   34.2985 S   0  0  0  0  0  0  0  0  0  0  0  0
    0.8098    1.8202   33.4139 C   0  0  0  0  0  0  0  0  0  0  0  0
    1.7280    2.7211   32.5601 C   0  0  0  0  0  0  0  0  0  0  0  0
    1.1056    4.0937   32.3396 C   0  0  0  0  0  0  0  0  0  0  0  0
    1.4046   -0.3769   32.1216 C   0  0  0  0  0  0  0  0  0  0  0  0
    2.4202   -0.9729   31.8896 O   0  0  0  0  0  0  0  0  0  0  0  0
    0.2226   -0.1868   31.3179 N   0  0  0  0  0  0  0  0  0  0  0  0
   -0.0773   -0.5810   29.9190 C   0  0  0  0  0  0  0  0  0  0  0  0
   -0.4054   -2.0892   29.7705 C   0  0  0  0  0  0  0  0  0  0  0  0
   -1.5983   -2.4421   30.5487 N   0  0  0  0  0  0  0  0  0  0  0  0
   -1.0652   -2.9228   31.7987 N   0  0  0  0  0  0  0  0  0  0  0  0
    0.1846   -3.6004   31.4741 C   0  0  0  0  0  0  0  0  0  0  0  0
   -0.0150   -5.0950   31.3459 C   0  0  0  0  0  0  0  0  0  0  0  0
    0.4163   -5.9599   30.3589 C   0  0  0  0  0  0  0  0  0  0  0  0
   -0.0482   -7.2937   30.5498 C   0  0  0  0  0  0  0  0  0  0  0  0
   -0.7739   -7.4264   31.7096 C   0  0  0  0  0  0  0  0  0  0  0  0
   -0.8451   -5.9654   32.5784 S   0  0  0  0  0  0  0  0  0  0  0  0
    0.6558   -2.9850   30.2403 N   0  0  0  0  0  0  0  0  0  0  0  0
    0.9384    0.0029   28.8911 C   0  0  0  0  0  0  0  0  0  0  0  0
    0.0191    1.2321   28.7536 C   0  0  0  0  0  0  0  0  0  0  0  0
   -1.1381    0.3469   29.2473 C   0  0  0  0  0  0  0  0  0  0  0  0
   -3.8760    0.4982   34.1538 H   0  0  0  0  0  0  0  0  0  0  0  0
   -3.6534    0.3142   35.9060 H   0  0  0  0  0  0  0  0  0  0  0  0
   -4.4965   -0.9406   34.9804 H   0  0  0  0  0  0  0  0  0  0  0  0
   -2.2249   -1.6942   35.4925 H   0  0  0  0  0  0  0  0  0  0  0  0
   -2.4263   -1.4908   33.7650 H   0  0  0  0  0  0  0  0  0  0  0  0
   -1.4296    0.6803   33.7931 H   0  0  0  0  0  0  0  0  0  0  0  0
   -1.1572    0.6959   35.5204 H   0  0  0  0  0  0  0  0  0  0  0  0
    0.0127   -1.4780   33.7896 H   0  0  0  0  0  0  0  0  0  0  0  0
    1.4408   -0.4604   36.2393 H   0  0  0  0  0  0  0  0  0  0  0  0
    2.4108   -2.2758   34.6356 H   0  0  0  0  0  0  0  0  0  0  0  0
    2.3933   -2.5953   36.3681 H   0  0  0  0  0  0  0  0  0  0  0  0
    0.2342   -3.5317   34.4163 H   0  0  0  0  0  0  0  0  0  0  0  0
    2.1394   -4.7708   33.7828 H   0  0  0  0  0  0  0  0  0  0  0  0
    1.1815   -5.8453   34.7726 H   0  0  0  0  0  0  0  0  0  0  0  0
    1.6426   -5.9672   36.9035 H   0  0  0  0  0  0  0  0  0  0  0  0
    4.3225   -5.7950   38.0464 H   0  0  0  0  0  0  0  0  0  0  0  0
    3.8894   -7.4103   37.4982 H   0  0  0  0  0  0  0  0  0  0  0  0
    3.9980   -5.5019   40.3851 H   0  0  0  0  0  0  0  0  0  0  0  0
    2.7903   -5.9970   42.4779 H   0  0  0  0  0  0  0  0  0  0  0  0
    0.8278   -7.5153   42.4606 H   0  0  0  0  0  0  0  0  0  0  0  0
    0.0768   -8.5417   40.3331 H   0  0  0  0  0  0  0  0  0  0  0  0
    1.2580   -8.0563   38.2358 H   0  0  0  0  0  0  0  0  0  0  0  0
   -1.0737   -3.1239   37.8397 H   0  0  0  0  0  0  0  0  0  0  0  0
    3.5601   -0.3715   33.3836 H   0  0  0  0  0  0  0  0  0  0  0  0
    0.7099    2.2645   34.4140 H   0  0  0  0  0  0  0  0  0  0  0  0
   -0.1777    1.9064   32.9546 H   0  0  0  0  0  0  0  0  0  0  0  0
    1.9160    2.2617   31.5838 H   0  0  0  0  0  0  0  0  0  0  0  0
    2.6973    2.8710   33.0451 H   0  0  0  0  0  0  0  0  0  0  0  0
    0.1683    4.0132   31.7819 H   0  0  0  0  0  0  0  0  0  0  0  0
    1.7856    4.7292   31.7635 H   0  0  0  0  0  0  0  0  0  0  0  0
    0.8999    4.5904   33.2932 H   0  0  0  0  0  0  0  0  0  0  0  0
   -0.4717    0.3006   31.8643 H   0  0  0  0  0  0  0  0  0  0  0  0
   -0.5947   -2.3080   28.7122 H   0  0  0  0  0  0  0  0  0  0  0  0
   -2.0235   -3.1952   30.0041 H   0  0  0  0  0  0  0  0  0  0  0  0
   -1.6826   -3.5453   32.3207 H   0  0  0  0  0  0  0  0  0  0  0  0
    0.9183   -3.4210   32.2648 H   0  0  0  0  0  0  0  0  0  0  0  0
    1.0090   -5.6228   29.5174 H   0  0  0  0  0  0  0  0  0  0  0  0
    0.1453   -8.1237   29.8800 H   0  0  0  0  0  0  0  0  0  0  0  0
   -1.2440   -8.3191   32.1013 H   0  0  0  0  0  0  0  0  0  0  0  0
    1.4552   -2.3977   30.4893 H   0  0  0  0  0  0  0  0  0  0  0  0
    1.0265   -0.5788   27.9665 H   0  0  0  0  0  0  0  0  0  0  0  0
    1.9464    0.2159   29.2580 H   0  0  0  0  0  0  0  0  0  0  0  0
    0.2702    2.0516   29.4366 H   0  0  0  0  0  0  0  0  0  0  0  0
   -0.0882    1.6332   27.7426 H   0  0  0  0  0  0  0  0  0  0  0  0
   -1.8519    0.8328   29.9175 H   0  0  0  0  0  0  0  0  0  0  0  0
   -1.6973   -0.1219   28.4281 H   0  0  0  0  0  0  0  0  0  0  0  0
  1  2  1  0
  2  3  1  0
  3  4  1  0
  4  5  1  0
  5  6  1  0
  6  7  1  0
  7  8  1  0
  8  9  1  0
  9 10  2  0
  9 11  1  0
 11 12  1  0
 12 13  1  0
 13 14  2  0
 14 15  1  0
 15 16  2  0
 16 17  1  0
 17 18  2  0
  7 19  1  0
 19 20  2  0
 19 21  1  0
 21 22  1  0
 22 23  2  0
  4 24  1  0
 24 25  1  0
 24 26  1  0
 26 27  1  0
 27 28  1  0
 24 29  1  0
 29 30  2  0
 29 31  1  0
 31 32  1  0
 32 33  1  0
 33 34  1  0
 34 35  1  0
 35 36  1  0
 36 37  1  0
 37 38  2  0
 38 39  1  0
 39 40  2  0
 40 41  1  0
 36 42  1  0
 32 43  1  0
 43 44  1  0
 44 45  1  0
 22  5  1  0
 45 32  1  0
 18 13  1  0
 42 33  1  0
 41 37  1  0
  1 46  1  0
  1 47  1  0
  1 48  1  0
  2 49  1  0
  2 50  1  0
  3 51  1  0
  3 52  1  0
  4 53  1  0
  5 54  1  0
  6 55  1  0
  6 56  1  0
  7 57  1  0
  8 58  1  0
  8 59  1  0
 11 60  1  0
 12 61  1  0
 12 62  1  0
 14 63  1  0
 15 64  1  0
 16 65  1  0
 17 66  1  0
 18 67  1  0
 21 68  1  0
 25 69  1  0
 26 70  1  0
 26 71  1  0
 27 72  1  0
 27 73  1  0
 28 74  1  0
 28 75  1  0
 28 76  1  0
 31 77  1  0
 33 78  1  0
 34 79  1  0
 35 80  1  0
 36 81  1  0
 38 82  1  0
 39 83  1  0
 40 84  1  0
 42 85  1  0
 43 86  1  0
 43 87  1  0
 44 88  1  0
 44 89  1  0
 45 90  1  0
 45 91  1  0
M  END
>  <Energy>  (247) 
26.462021336413354

>  <compound_id>  (247) 
4020

>  <target_id>  (247) 
1

>  <reference_id>  (247) 
140

>  <inspiration_ids>  (247) 
[140, 162]

>  <energy_score>  (247) 
-141.48976089885022

>  <distance_score>  (247) 
1.4392222376828008

>  <path>  (247) 
/opt/xchem-fragalysis-2/maxwin/BulkDock/SCRATCH/505735/C4020-P140/C4020-P140.minimised.mol

>  <scratch_subdir>  (247) 
/opt/xchem-fragalysis-2/maxwin/BulkDock/SCRATCH/505735/C4020-P140

>  <fragmenstein_runtime>  (247) 
27.878655672073364

>  <fragmenstein_outcome>  (247) 
too moved

>  <fragmenstein_mode>  (247) 
expansion

>  <fragmenstein_error>  (247) 


$$$$
C4020-P162
     RDKit          3D

 91 95  0  0  0  0  0  0  0  0999 V2000
   -3.1187    1.9554   34.7696 C   0  0  0  0  0  0  0  0  0  0  0  0
   -2.0699    0.9760   34.2642 C   0  0  0  0  0  0  0  0  0  0  0  0
   -0.6724    1.3308   34.7860 C   0  0  0  0  0  0  0  0  0  0  0  0
    0.4181    0.2972   34.3312 C   0  0  0  0  0  0  0  0  0  0  0  0
    1.1486   -0.2415   35.6418 C   0  0  0  0  0  0  0  0  0  0  0  0
    2.3312   -1.2255   35.5508 C   0  0  0  0  0  0  0  0  0  0  0  0
    1.9220   -2.5334   34.8970 C   0  0  0  0  0  0  0  0  0  0  0  0
    3.0903   -3.4986   34.6724 C   0  0  0  0  0  0  0  0  0  0  0  0
    3.9733   -3.7458   35.8928 C   0  0  0  0  0  0  0  0  0  0  0  0
    5.0430   -3.2136   35.9415 O   0  0  0  0  0  0  0  0  0  0  0  0
    3.3426   -4.6553   36.7932 N   0  0  0  0  0  0  0  0  0  0  0  0
    3.8300   -5.2894   37.9893 C   0  0  0  0  0  0  0  0  0  0  0  0
    2.8383   -6.1972   38.6645 C   0  0  0  0  0  0  0  0  0  0  0  0
    2.7909   -6.2434   40.0670 C   0  0  0  0  0  0  0  0  0  0  0  0
    1.9204   -7.1139   40.7265 C   0  0  0  0  0  0  0  0  0  0  0  0
    1.0880   -7.9534   39.9924 C   0  0  0  0  0  0  0  0  0  0  0  0
    1.1325   -7.9277   38.6012 C   0  0  0  0  0  0  0  0  0  0  0  0
    2.0105   -7.0673   37.9406 C   0  0  0  0  0  0  0  0  0  0  0  0
    0.7819   -3.1663   35.6646 C   0  0  0  0  0  0  0  0  0  0  0  0
    0.6544   -4.3838   35.7742 O   0  0  0  0  0  0  0  0  0  0  0  0
   -0.1294   -2.2953   36.2058 N   0  0  0  0  0  0  0  0  0  0  0  0
    0.1228   -0.9812   36.5202 C   0  0  0  0  0  0  0  0  0  0  0  0
   -0.4682   -0.4414   37.4517 O   0  0  0  0  0  0  0  0  0  0  0  0
    1.2825    0.8099   33.0745 C   0  0  0  0  0  0  0  0  0  0  0  0
    3.0157    1.2647   33.5652 S   0  0  0  0  0  0  0  0  0  0  0  0
    0.7864    2.1216   32.3561 C   0  0  0  0  0  0  0  0  0  0  0  0
    1.5262    2.5058   31.0525 C   0  0  0  0  0  0  0  0  0  0  0  0
    0.9397    3.7596   30.4213 C   0  0  0  0  0  0  0  0  0  0  0  0
    1.3156   -0.3691   31.9949 C   0  0  0  0  0  0  0  0  0  0  0  0
    2.3293   -0.9914   31.8370 O   0  0  0  0  0  0  0  0  0  0  0  0
    0.0238   -0.4792   31.3346 N   0  0  0  0  0  0  0  0  0  0  0  0
   -0.4214   -1.3283   30.1896 C   0  0  0  0  0  0  0  0  0  0  0  0
   -0.6480   -2.8130   30.5738 C   0  0  0  0  0  0  0  0  0  0  0  0
   -1.6191   -2.9560   31.6707 N   0  0  0  0  0  0  0  0  0  0  0  0
   -0.8659   -3.4750   32.7855 N   0  0  0  0  0  0  0  0  0  0  0  0
    0.2369   -4.2284   32.1962 C   0  0  0  0  0  0  0  0  0  0  0  0
   -0.0992   -5.6632   31.9009 C   0  0  0  0  0  0  0  0  0  0  0  0
    0.0323   -6.3700   30.7219 C   0  0  0  0  0  0  0  0  0  0  0  0
   -0.5060   -7.6818   30.8114 C   0  0  0  0  0  0  0  0  0  0  0  0
   -0.9872   -7.9532   32.0712 C   0  0  0  0  0  0  0  0  0  0  0  0
   -0.6489   -6.6890   33.1647 S   0  0  0  0  0  0  0  0  0  0  0  0
    0.5893   -3.4674   31.0084 N   0  0  0  0  0  0  0  0  0  0  0  0
    0.3943   -1.0698   28.8869 C   0  0  0  0  0  0  0  0  0  0  0  0
   -0.6352    0.0120   28.5064 C   0  0  0  0  0  0  0  0  0  0  0  0
   -1.6372   -0.6947   29.4345 C   0  0  0  0  0  0  0  0  0  0  0  0
   -2.8892    2.9775   34.4528 H   0  0  0  0  0  0  0  0  0  0  0  0
   -3.1740    1.9399   35.8628 H   0  0  0  0  0  0  0  0  0  0  0  0
   -4.1053    1.6902   34.3771 H   0  0  0  0  0  0  0  0  0  0  0  0
   -2.3438   -0.0331   34.5939 H   0  0  0  0  0  0  0  0  0  0  0  0
   -2.0822    0.9717   33.1709 H   0  0  0  0  0  0  0  0  0  0  0  0
   -0.4164    2.3543   34.5069 H   0  0  0  0  0  0  0  0  0  0  0  0
   -0.7329    1.3835   35.8775 H   0  0  0  0  0  0  0  0  0  0  0  0
   -0.1448   -0.5730   33.9670 H   0  0  0  0  0  0  0  0  0  0  0  0
    1.4986    0.6255   36.2189 H   0  0  0  0  0  0  0  0  0  0  0  0
    3.2000   -0.8148   35.0423 H   0  0  0  0  0  0  0  0  0  0  0  0
    2.6754   -1.4271   36.5762 H   0  0  0  0  0  0  0  0  0  0  0  0
    1.5140   -2.3085   33.9098 H   0  0  0  0  0  0  0  0  0  0  0  0
    3.7384   -3.0897   33.8852 H   0  0  0  0  0  0  0  0  0  0  0  0
    2.7522   -4.4708   34.2949 H   0  0  0  0  0  0  0  0  0  0  0  0
    2.4622   -4.9682   36.3864 H   0  0  0  0  0  0  0  0  0  0  0  0
    4.1508   -4.4841   38.6599 H   0  0  0  0  0  0  0  0  0  0  0  0
    4.7255   -5.8610   37.7207 H   0  0  0  0  0  0  0  0  0  0  0  0
    3.4357   -5.5978   40.6600 H   0  0  0  0  0  0  0  0  0  0  0  0
    1.8906   -7.1342   41.8125 H   0  0  0  0  0  0  0  0  0  0  0  0
    0.4072   -8.6332   40.4972 H   0  0  0  0  0  0  0  0  0  0  0  0
    0.4885   -8.5884   38.0245 H   0  0  0  0  0  0  0  0  0  0  0  0
    2.0352   -7.0926   36.8545 H   0  0  0  0  0  0  0  0  0  0  0  0
   -0.8137   -2.7437   36.8024 H   0  0  0  0  0  0  0  0  0  0  0  0
    3.6237    0.3412   32.7963 H   0  0  0  0  0  0  0  0  0  0  0  0
    0.8763    2.9778   33.0386 H   0  0  0  0  0  0  0  0  0  0  0  0
   -0.2785    2.0483   32.1190 H   0  0  0  0  0  0  0  0  0  0  0  0
    1.4769    1.6938   30.3216 H   0  0  0  0  0  0  0  0  0  0  0  0
    2.5862    2.6983   31.2438 H   0  0  0  0  0  0  0  0  0  0  0  0
   -0.0867    3.5851   30.0931 H   0  0  0  0  0  0  0  0  0  0  0  0
    1.5253    4.0498   29.5432 H   0  0  0  0  0  0  0  0  0  0  0  0
    0.9441    4.5974   31.1254 H   0  0  0  0  0  0  0  0  0  0  0  0
   -0.6275    0.1513   31.7777 H   0  0  0  0  0  0  0  0  0  0  0  0
   -1.0370   -3.3594   29.7063 H   0  0  0  0  0  0  0  0  0  0  0  0
   -2.0295   -2.0483   31.8880 H   0  0  0  0  0  0  0  0  0  0  0  0
   -1.4185   -4.1039   33.3867 H   0  0  0  0  0  0  0  0  0  0  0  0
    1.0915   -4.2432   32.8712 H   0  0  0  0  0  0  0  0  0  0  0  0
    0.4383   -5.9233   29.8234 H   0  0  0  0  0  0  0  0  0  0  0  0
   -0.5497   -8.3905   29.9942 H   0  0  0  0  0  0  0  0  0  0  0  0
   -1.4759   -8.8535   32.4183 H   0  0  0  0  0  0  0  0  0  0  0  0
    1.2253   -2.7323   31.3172 H   0  0  0  0  0  0  0  0  0  0  0  0
    0.4085   -1.9199   28.1956 H   0  0  0  0  0  0  0  0  0  0  0  0
    1.4204   -0.7120   29.0100 H   0  0  0  0  0  0  0  0  0  0  0  0
   -0.3655    1.0206   28.8372 H   0  0  0  0  0  0  0  0  0  0  0  0
   -0.9158    0.0512   27.4511 H   0  0  0  0  0  0  0  0  0  0  0  0
   -2.2811   -0.0306   30.0188 H   0  0  0  0  0  0  0  0  0  0  0  0
   -2.2739   -1.4172   28.9090 H   0  0  0  0  0  0  0  0  0  0  0  0
  1  2  1  0
  2  3  1  0
  3  4  1  0
  4  5  1  0
  5  6  1  0
  6  7  1  0
  7  8  1  0
  8  9  1  0
  9 10  2  0
  9 11  1  0
 11 12  1  0
 12 13  1  0
 13 14  2  0
 14 15  1  0
 15 16  2  0
 16 17  1  0
 17 18  2  0
  7 19  1  0
 19 20  2  0
 19 21  1  0
 21 22  1  0
 22 23  2  0
  4 24  1  0
 24 25  1  0
 24 26  1  0
 26 27  1  0
 27 28  1  0
 24 29  1  0
 29 30  2  0
 29 31  1  0
 31 32  1  0
 32 33  1  0
 33 34  1  0
 34 35  1  0
 35 36  1  0
 36 37  1  0
 37 38  2  0
 38 39  1  0
 39 40  2  0
 40 41  1  0
 36 42  1  0
 32 43  1  0
 43 44  1  0
 44 45  1  0
 22  5  1  0
 45 32  1  0
 18 13  1  0
 42 33  1  0
 41 37  1  0
  1 46  1  0
  1 47  1  0
  1 48  1  0
  2 49  1  0
  2 50  1  0
  3 51  1  0
  3 52  1  0
  4 53  1  0
  5 54  1  0
  6 55  1  0
  6 56  1  0
  7 57  1  0
  8 58  1  0
  8 59  1  0
 11 60  1  0
 12 61  1  0
 12 62  1  0
 14 63  1  0
 15 64  1  0
 16 65  1  0
 17 66  1  0
 18 67  1  0
 21 68  1  0
 25 69  1  0
 26 70  1  0
 26 71  1  0
 27 72  1  0
 27 73  1  0
 28 74  1  0
 28 75  1  0
 28 76  1  0
 31 77  1  0
 33 78  1  0
 34 79  1  0
 35 80  1  0
 36 81  1  0
 38 82  1  0
 39 83  1  0
 40 84  1  0
 42 85  1  0
 43 86  1  0
 43 87  1  0
 44 88  1  0
 44 89  1  0
 45 90  1  0
 45 91  1  0
M  END
>  <Energy>  (248) 
26.93107819131799

>  <compound_id>  (248) 
4020

>  <target_id>  (248) 
1

>  <reference_id>  (248) 
162

>  <inspiration_ids>  (248) 
[140, 162]

>  <energy_score>  (248) 
-141.0207040439444

>  <distance_score>  (248) 
1.8080479755901455

>  <path>  (248) 
/opt/xchem-fragalysis-2/maxwin/BulkDock/SCRATCH/505735/C4020-P162/C4020-P162.minimised.mol

>  <scratch_subdir>  (248) 
/opt/xchem-fragalysis-2/maxwin/BulkDock/SCRATCH/505735/C4020-P162

>  <fragmenstein_runtime>  (248) 
23.334854125976562

>  <fragmenstein_outcome>  (248) 
too moved

>  <fragmenstein_mode>  (248) 
expansion

>  <fragmenstein_error>  (248) 


$$$$
C4021-P140
     RDKit          3D

 62 65  0  0  0  0  0  0  0  0999 V2000
    3.7873   -2.7457   39.6896 O   0  0  0  0  0  0  0  0  0  0  0  0
    3.0813   -3.0892   40.5921 C   0  0  0  0  0  0  0  0  0  0  0  0
    1.6442   -2.5674   40.6547 C   0  0  0  0  0  0  0  0  0  0  0  0
    0.6180   -3.6801   40.3133 C   0  0  0  0  0  0  0  0  0  0  0  0
    1.0669   -4.5766   39.1552 C   0  0  0  0  0  0  0  0  0  0  0  0
    0.1224   -5.7474   38.8829 C   0  0  0  0  0  0  0  0  0  0  0  0
    0.8429   -6.7266   38.0306 N   0  0  0  0  0  0  0  0  0  0  0  0
    0.3940   -6.7980   36.6391 C   0  0  0  0  0  0  0  0  0  0  0  0
    0.6167   -5.5135   35.7828 C   0  0  0  0  0  0  0  0  0  0  0  0
    2.1510   -5.1867   35.7503 C   0  0  0  0  0  0  0  0  0  0  0  0
    2.3034   -4.0904   34.7614 C   0  0  0  0  0  0  0  0  0  0  0  0
    3.7466   -3.3561   34.3055 S   0  0  0  0  0  0  0  0  0  0  0  0
    2.9276   -2.4047   33.1328 C   0  0  0  0  0  0  0  0  0  0  0  0
    1.5717   -2.6590   33.1022 C   0  0  0  0  0  0  0  0  0  0  0  0
    1.2149   -3.6503   34.0510 C   0  0  0  0  0  0  0  0  0  0  0  0
   -0.0976   -4.3138   34.2872 C   0  0  0  0  0  0  0  0  0  0  0  0
    0.1364   -5.8338   34.3094 N   0  0  0  0  0  0  0  0  0  0  0  0
   -1.0192   -6.5099   33.8356 C   0  0  0  0  0  0  0  0  0  0  0  0
   -1.9755   -6.9333   34.4310 O   0  0  0  0  0  0  0  0  0  0  0  0
   -0.9747   -6.5670   32.2713 C   0  0  0  0  0  0  0  0  0  0  0  0
    0.5896   -6.1349   31.4549 S   0  0  0  0  0  0  0  0  0  0  0  0
   -1.4877   -8.1454   31.6780 Cl  0  0  0  0  0  0  0  0  0  0  0  0
   -0.2872   -6.4345   40.1980 C   0  0  0  0  0  0  0  0  0  0  0  0
   -0.5140   -7.6411   40.2746 O   0  0  0  0  0  0  0  0  0  0  0  0
   -0.4487   -5.6450   41.3018 N   0  0  0  0  0  0  0  0  0  0  0  0
    0.2999   -4.5280   41.5301 C   0  0  0  0  0  0  0  0  0  0  0  0
    0.6886   -4.2482   42.6623 O   0  0  0  0  0  0  0  0  0  0  0  0
    3.3040   -4.0249   41.6468 N   0  0  0  0  0  0  0  0  0  0  0  0
    4.4013   -4.9145   41.9007 C   0  0  0  0  0  0  0  0  0  0  0  0
    4.0009   -6.2731   41.3703 C   0  0  0  0  0  0  0  0  0  0  0  0
    4.4581   -6.7223   40.1242 C   0  0  0  0  0  0  0  0  0  0  0  0
    3.9825   -7.9205   39.5873 C   0  0  0  0  0  0  0  0  0  0  0  0
    3.0400   -8.6746   40.2833 C   0  0  0  0  0  0  0  0  0  0  0  0
    2.5787   -8.2408   41.5217 C   0  0  0  0  0  0  0  0  0  0  0  0
    3.0570   -7.0486   42.0638 C   0  0  0  0  0  0  0  0  0  0  0  0
    1.5564   -1.7652   39.9108 H   0  0  0  0  0  0  0  0  0  0  0  0
    1.4609   -2.1071   41.6320 H   0  0  0  0  0  0  0  0  0  0  0  0
   -0.3250   -3.1865   40.0415 H   0  0  0  0  0  0  0  0  0  0  0  0
    2.0577   -4.9919   39.3670 H   0  0  0  0  0  0  0  0  0  0  0  0
    1.1698   -3.9560   38.2587 H   0  0  0  0  0  0  0  0  0  0  0  0
   -0.8096   -5.4027   38.4189 H   0  0  0  0  0  0  0  0  0  0  0  0
    0.7077   -7.6618   38.4510 H   0  0  0  0  0  0  0  0  0  0  0  0
    0.9352   -7.6192   36.1587 H   0  0  0  0  0  0  0  0  0  0  0  0
   -0.6626   -7.0762   36.6160 H   0  0  0  0  0  0  0  0  0  0  0  0
    0.0396   -4.7653   36.3459 H   0  0  0  0  0  0  0  0  0  0  0  0
    2.5280   -4.8879   36.7311 H   0  0  0  0  0  0  0  0  0  0  0  0
    2.7169   -6.0653   35.4167 H   0  0  0  0  0  0  0  0  0  0  0  0
    3.4859   -1.7078   32.5224 H   0  0  0  0  0  0  0  0  0  0  0  0
    0.8931   -2.1710   32.4130 H   0  0  0  0  0  0  0  0  0  0  0  0
   -0.7780   -3.8751   35.0323 H   0  0  0  0  0  0  0  0  0  0  0  0
   -0.6808   -4.1298   33.3709 H   0  0  0  0  0  0  0  0  0  0  0  0
   -1.6886   -5.8300   31.9134 H   0  0  0  0  0  0  0  0  0  0  0  0
    1.3467   -6.2853   32.5527 H   0  0  0  0  0  0  0  0  0  0  0  0
   -0.6224   -6.1961   42.1329 H   0  0  0  0  0  0  0  0  0  0  0  0
    2.5097   -4.0013   42.2850 H   0  0  0  0  0  0  0  0  0  0  0  0
    4.5859   -4.9534   42.9785 H   0  0  0  0  0  0  0  0  0  0  0  0
    5.2978   -4.5400   41.3968 H   0  0  0  0  0  0  0  0  0  0  0  0
    5.1618   -6.1233   39.5501 H   0  0  0  0  0  0  0  0  0  0  0  0
    4.3292   -8.2550   38.6138 H   0  0  0  0  0  0  0  0  0  0  0  0
    2.6454   -9.5946   39.8600 H   0  0  0  0  0  0  0  0  0  0  0  0
    1.8319   -8.8289   42.0505 H   0  0  0  0  0  0  0  0  0  0  0  0
    2.6705   -6.7118   43.0234 H   0  0  0  0  0  0  0  0  0  0  0  0
  1  2  2  0
  2  3  1  0
  3  4  1  0
  4  5  1  0
  5  6  1  0
  6  7  1  0
  7  8  1  0
  8  9  1  0
  9 10  1  0
 10 11  1  0
 11 12  1  0
 12 13  1  0
 13 14  2  0
 14 15  1  0
 15 16  1  0
 16 17  1  0
 17 18  1  0
 18 19  2  0
 18 20  1  0
 20 21  1  0
 20 22  1  0
  6 23  1  0
 23 24  2  0
 23 25  1  0
 25 26  1  0
 26 27  2  0
  2 28  1  0
 28 29  1  0
 29 30  1  0
 30 31  2  0
 31 32  1  0
 32 33  2  0
 33 34  1  0
 34 35  2  0
 26  4  1  0
 35 30  1  0
 17  9  1  0
 15 11  2  0
  3 36  1  0
  3 37  1  0
  4 38  1  0
  5 39  1  0
  5 40  1  0
  6 41  1  0
  7 42  1  0
  8 43  1  0
  8 44  1  0
  9 45  1  0
 10 46  1  0
 10 47  1  0
 13 48  1  0
 14 49  1  0
 16 50  1  0
 16 51  1  0
 20 52  1  0
 21 53  1  0
 25 54  1  0
 28 55  1  0
 29 56  1  0
 29 57  1  0
 31 58  1  0
 32 59  1  0
 33 60  1  0
 34 61  1  0
 35 62  1  0
M  END
>  <Energy>  (249) 
130.47706481276754

>  <compound_id>  (249) 
4021

>  <target_id>  (249) 
1

>  <reference_id>  (249) 
140

>  <inspiration_ids>  (249) 
[140, 163]

>  <energy_score>  (249) 
-13.75030787527831

>  <distance_score>  (249) 
4.905925556593112

>  <path>  (249) 
/opt/xchem-fragalysis-2/maxwin/BulkDock/SCRATCH/505735/C4021-P140/C4021-P140.minimised.mol

>  <scratch_subdir>  (249) 
/opt/xchem-fragalysis-2/maxwin/BulkDock/SCRATCH/505735/C4021-P140

>  <fragmenstein_runtime>  (249) 
11.123790740966797

>  <fragmenstein_outcome>  (249) 
too moved

>  <fragmenstein_mode>  (249) 
expansion

>  <fragmenstein_error>  (249) 


$$$$
C4021-P163
     RDKit          3D

 62 65  0  0  0  0  0  0  0  0999 V2000
    4.8639   -6.2852   34.9158 O   0  0  0  0  0  0  0  0  0  0  0  0
    5.1537   -6.1592   36.0717 C   0  0  0  0  0  0  0  0  0  0  0  0
    6.4161   -5.3672   36.4221 C   0  0  0  0  0  0  0  0  0  0  0  0
    6.2292   -3.9623   37.0032 C   0  0  0  0  0  0  0  0  0  0  0  0
    5.6307   -2.9209   36.0496 C   0  0  0  0  0  0  0  0  0  0  0  0
    4.2165   -2.4703   36.4185 C   0  0  0  0  0  0  0  0  0  0  0  0
    3.2081   -3.5165   36.1999 N   0  0  0  0  0  0  0  0  0  0  0  0
    2.8876   -3.7134   34.7738 C   0  0  0  0  0  0  0  0  0  0  0  0
    1.7781   -4.8125   34.6351 C   0  0  0  0  0  0  0  0  0  0  0  0
    1.5676   -5.0073   33.0930 C   0  0  0  0  0  0  0  0  0  0  0  0
    0.4754   -5.9881   32.9594 C   0  0  0  0  0  0  0  0  0  0  0  0
   -0.0352   -6.7425   31.5439 S   0  0  0  0  0  0  0  0  0  0  0  0
   -1.1770   -7.6724   32.4225 C   0  0  0  0  0  0  0  0  0  0  0  0
   -1.1787   -7.3570   33.7675 C   0  0  0  0  0  0  0  0  0  0  0  0
   -0.2360   -6.3413   34.0716 C   0  0  0  0  0  0  0  0  0  0  0  0
    0.1012   -5.7109   35.3899 C   0  0  0  0  0  0  0  0  0  0  0  0
    0.5420   -4.2223   35.3956 N   0  0  0  0  0  0  0  0  0  0  0  0
   -0.5391   -3.3844   34.9287 C   0  0  0  0  0  0  0  0  0  0  0  0
   -0.8101   -3.0053   33.8178 O   0  0  0  0  0  0  0  0  0  0  0  0
   -1.4024   -2.9562   36.1554 C   0  0  0  0  0  0  0  0  0  0  0  0
   -2.5367   -1.5791   35.7890 S   0  0  0  0  0  0  0  0  0  0  0  0
   -0.3523   -2.4406   37.5185 Cl  0  0  0  0  0  0  0  0  0  0  0  0
    4.1634   -2.1002   37.9113 C   0  0  0  0  0  0  0  0  0  0  0  0
    3.3294   -1.3190   38.3661 O   0  0  0  0  0  0  0  0  0  0  0  0
    4.9863   -2.8050   38.7516 N   0  0  0  0  0  0  0  0  0  0  0  0
    5.5858   -3.9735   38.3760 C   0  0  0  0  0  0  0  0  0  0  0  0
    5.6632   -4.9384   39.1324 O   0  0  0  0  0  0  0  0  0  0  0  0
    4.5542   -6.7039   37.2489 N   0  0  0  0  0  0  0  0  0  0  0  0
    3.4809   -7.6437   37.4112 C   0  0  0  0  0  0  0  0  0  0  0  0
    2.5711   -7.3248   38.5620 C   0  0  0  0  0  0  0  0  0  0  0  0
    2.1750   -8.3401   39.4425 C   0  0  0  0  0  0  0  0  0  0  0  0
    1.2690   -8.0814   40.4716 C   0  0  0  0  0  0  0  0  0  0  0  0
    0.7462   -6.8022   40.6344 C   0  0  0  0  0  0  0  0  0  0  0  0
    1.1284   -5.7823   39.7667 C   0  0  0  0  0  0  0  0  0  0  0  0
    2.0330   -6.0432   38.7361 C   0  0  0  0  0  0  0  0  0  0  0  0
    7.0174   -5.2960   35.5055 H   0  0  0  0  0  0  0  0  0  0  0  0
    7.0161   -5.9819   37.1071 H   0  0  0  0  0  0  0  0  0  0  0  0
    7.2557   -3.6154   37.2028 H   0  0  0  0  0  0  0  0  0  0  0  0
    6.2723   -2.0286   36.0961 H   0  0  0  0  0  0  0  0  0  0  0  0
    5.6948   -3.2565   35.0089 H   0  0  0  0  0  0  0  0  0  0  0  0
    3.9625   -1.5630   35.8562 H   0  0  0  0  0  0  0  0  0  0  0  0
    2.3292   -3.2138   36.6449 H   0  0  0  0  0  0  0  0  0  0  0  0
    2.5298   -2.7696   34.3428 H   0  0  0  0  0  0  0  0  0  0  0  0
    3.7747   -4.0243   34.2143 H   0  0  0  0  0  0  0  0  0  0  0  0
    2.2432   -5.6948   35.1054 H   0  0  0  0  0  0  0  0  0  0  0  0
    2.4895   -5.3838   32.6354 H   0  0  0  0  0  0  0  0  0  0  0  0
    1.3022   -4.0629   32.6055 H   0  0  0  0  0  0  0  0  0  0  0  0
   -1.7940   -8.4048   31.9219 H   0  0  0  0  0  0  0  0  0  0  0  0
   -1.8254   -7.8439   34.4866 H   0  0  0  0  0  0  0  0  0  0  0  0
   -0.8481   -5.6977   35.9472 H   0  0  0  0  0  0  0  0  0  0  0  0
    0.7306   -6.3431   36.0333 H   0  0  0  0  0  0  0  0  0  0  0  0
   -1.9872   -3.8107   36.5018 H   0  0  0  0  0  0  0  0  0  0  0  0
   -2.7641   -1.2617   37.0698 H   0  0  0  0  0  0  0  0  0  0  0  0
    4.6673   -2.7717   39.7113 H   0  0  0  0  0  0  0  0  0  0  0  0
    5.1209   -6.4486   38.0594 H   0  0  0  0  0  0  0  0  0  0  0  0
    3.9552   -8.6211   37.5531 H   0  0  0  0  0  0  0  0  0  0  0  0
    2.9061   -7.6927   36.4802 H   0  0  0  0  0  0  0  0  0  0  0  0
    2.5480   -9.3553   39.3275 H   0  0  0  0  0  0  0  0  0  0  0  0
    0.9599   -8.8896   41.1312 H   0  0  0  0  0  0  0  0  0  0  0  0
    0.0382   -6.6021   41.4341 H   0  0  0  0  0  0  0  0  0  0  0  0
    0.7211   -4.7818   39.8911 H   0  0  0  0  0  0  0  0  0  0  0  0
    2.3139   -5.2375   38.0650 H   0  0  0  0  0  0  0  0  0  0  0  0
  1  2  2  0
  2  3  1  0
  3  4  1  0
  4  5  1  0
  5  6  1  0
  6  7  1  0
  7  8  1  0
  8  9  1  0
  9 10  1  0
 10 11  1  0
 11 12  1  0
 12 13  1  0
 13 14  2  0
 14 15  1  0
 15 16  1  0
 16 17  1  0
 17 18  1  0
 18 19  2  0
 18 20  1  0
 20 21  1  0
 20 22  1  0
  6 23  1  0
 23 24  2  0
 23 25  1  0
 25 26  1  0
 26 27  2  0
  2 28  1  0
 28 29  1  0
 29 30  1  0
 30 31  2  0
 31 32  1  0
 32 33  2  0
 33 34  1  0
 34 35  2  0
 26  4  1  0
 35 30  1  0
 17  9  1  0
 15 11  2  0
  3 36  1  0
  3 37  1  0
  4 38  1  0
  5 39  1  0
  5 40  1  0
  6 41  1  0
  7 42  1  0
  8 43  1  0
  8 44  1  0
  9 45  1  0
 10 46  1  0
 10 47  1  0
 13 48  1  0
 14 49  1  0
 16 50  1  0
 16 51  1  0
 20 52  1  0
 21 53  1  0
 25 54  1  0
 28 55  1  0
 29 56  1  0
 29 57  1  0
 31 58  1  0
 32 59  1  0
 33 60  1  0
 34 61  1  0
 35 62  1  0
M  END
>  <Energy>  (250) 
123.78594567275546

>  <compound_id>  (250) 
4021

>  <target_id>  (250) 
1

>  <reference_id>  (250) 
163

>  <inspiration_ids>  (250) 
[140, 163]

>  <energy_score>  (250) 
-20.441427015288753

>  <distance_score>  (250) 
3.2841519042312872

>  <path>  (250) 
/opt/xchem-fragalysis-2/maxwin/BulkDock/SCRATCH/505735/C4021-P163/C4021-P163.minimised.mol

>  <scratch_subdir>  (250) 
/opt/xchem-fragalysis-2/maxwin/BulkDock/SCRATCH/505735/C4021-P163

>  <fragmenstein_runtime>  (250) 
12.159492254257202

>  <fragmenstein_outcome>  (250) 
too moved

>  <fragmenstein_mode>  (250) 
expansion

>  <fragmenstein_error>  (250) 


$$$$
C4022-P140
     RDKit          3D

 46 50  0  0  0  0  0  0  0  0999 V2000
    2.6620   -6.5673   34.4811 O   0  0  0  0  0  0  0  0  0  0  0  0
    2.2512   -5.7277   35.1824 C   0  0  0  0  0  0  0  0  0  0  0  0
    1.0833   -4.7986   34.7877 C   0  0  0  0  0  0  0  0  0  0  0  0
    0.3186   -5.5401   33.7573 C   0  0  0  0  0  0  0  0  0  0  0  0
    0.1169   -5.3557   32.4354 C   0  0  0  0  0  0  0  0  0  0  0  0
    0.2156   -3.8819   31.6135 S   0  0  0  0  0  0  0  0  0  0  0  0
    1.3449   -4.1867   30.3623 C   0  0  0  0  0  0  0  0  0  0  0  0
    2.1607   -5.1967   30.1696 N   0  0  0  0  0  0  0  0  0  0  0  0
    3.0226   -4.7648   29.1803 C   0  0  0  0  0  0  0  0  0  0  0  0
    4.1415   -5.3928   28.6060 C   0  0  0  0  0  0  0  0  0  0  0  0
    4.8899   -4.7048   27.6411 C   0  0  0  0  0  0  0  0  0  0  0  0
    4.5382   -3.4116   27.2712 C   0  0  0  0  0  0  0  0  0  0  0  0
    5.2786   -2.7713   26.3570 F   0  0  0  0  0  0  0  0  0  0  0  0
    3.4397   -2.7582   27.8269 C   0  0  0  0  0  0  0  0  0  0  0  0
    2.6964   -3.4782   28.7620 C   0  0  0  0  0  0  0  0  0  0  0  0
    1.5779   -3.1649   29.4841 N   0  0  0  0  0  0  0  0  0  0  0  0
   -0.5410   -6.4530   31.8983 C   0  0  0  0  0  0  0  0  0  0  0  0
   -0.9577   -7.1322   30.8011 C   0  0  0  0  0  0  0  0  0  0  0  0
   -1.6506   -8.2327   31.2346 N   0  0  0  0  0  0  0  0  0  0  0  0
   -1.6475   -8.2363   32.5671 N   0  0  0  0  0  0  0  0  0  0  0  0
   -0.8956   -7.2201   32.9437 N   0  0  0  0  0  0  0  0  0  0  0  0
   -0.4415   -6.7599   34.1508 C   0  0  0  0  0  0  0  0  0  0  0  0
   -0.6861   -7.2039   35.2545 O   0  0  0  0  0  0  0  0  0  0  0  0
    2.6818   -5.3138   36.6106 N   0  0  0  0  0  0  0  0  0  0  0  0
    3.6382   -5.9052   37.5050 C   0  0  0  0  0  0  0  0  0  0  0  0
    2.9933   -6.6734   38.6292 C   0  0  0  0  0  0  0  0  0  0  0  0
    3.7527   -6.9680   39.7729 C   0  0  0  0  0  0  0  0  0  0  0  0
    3.2047   -7.7029   40.8262 C   0  0  0  0  0  0  0  0  0  0  0  0
    1.8916   -8.1560   40.7493 C   0  0  0  0  0  0  0  0  0  0  0  0
    1.1299   -7.8806   39.6183 C   0  0  0  0  0  0  0  0  0  0  0  0
    1.6786   -7.1590   38.5584 C   0  0  0  0  0  0  0  0  0  0  0  0
    1.5053   -3.8640   34.4071 H   0  0  0  0  0  0  0  0  0  0  0  0
    0.4440   -4.5794   35.6485 H   0  0  0  0  0  0  0  0  0  0  0  0
    4.4479   -6.3794   28.9240 H   0  0  0  0  0  0  0  0  0  0  0  0
    5.7636   -5.1675   27.1908 H   0  0  0  0  0  0  0  0  0  0  0  0
    3.1917   -1.7423   27.5431 H   0  0  0  0  0  0  0  0  0  0  0  0
    1.0698   -2.2924   29.4582 H   0  0  0  0  0  0  0  0  0  0  0  0
   -0.8302   -6.9087   29.7553 H   0  0  0  0  0  0  0  0  0  0  0  0
    2.1670   -4.4884   36.8935 H   0  0  0  0  0  0  0  0  0  0  0  0
    4.2462   -5.0866   37.9033 H   0  0  0  0  0  0  0  0  0  0  0  0
    4.2746   -6.5813   36.9249 H   0  0  0  0  0  0  0  0  0  0  0  0
    4.7836   -6.6297   39.8507 H   0  0  0  0  0  0  0  0  0  0  0  0
    3.8042   -7.9306   41.7034 H   0  0  0  0  0  0  0  0  0  0  0  0
    1.4644   -8.7477   41.5549 H   0  0  0  0  0  0  0  0  0  0  0  0
    0.1166   -8.2675   39.5464 H   0  0  0  0  0  0  0  0  0  0  0  0
    1.0638   -7.0050   37.6751 H   0  0  0  0  0  0  0  0  0  0  0  0
  1  2  2  0
  2  3  1  0
  3  4  1  0
  4  5  2  0
  5  6  1  0
  6  7  1  0
  7  8  2  0
  8  9  1  0
  9 10  2  0
 10 11  1  0
 11 12  2  0
 12 13  1  0
 12 14  1  0
 14 15  2  0
 15 16  1  0
  5 17  1  0
 17 18  2  0
 18 19  1  0
 19 20  2  0
 20 21  1  0
 21 22  1  0
 22 23  2  0
  2 24  1  0
 24 25  1  0
 25 26  1  0
 26 27  2  0
 27 28  1  0
 28 29  2  0
 29 30  1  0
 30 31  2  0
 22  4  1  0
 31 26  1  0
 16  7  1  0
 21 17  1  0
 15  9  1  0
  3 32  1  0
  3 33  1  0
 10 34  1  0
 11 35  1  0
 14 36  1  0
 16 37  1  0
 18 38  1  0
 24 39  1  0
 25 40  1  0
 25 41  1  0
 27 42  1  0
 28 43  1  0
 29 44  1  0
 30 45  1  0
 31 46  1  0
M  END
>  <Energy>  (251) 
57.223123451882927

>  <compound_id>  (251) 
4022

>  <target_id>  (251) 
1

>  <reference_id>  (251) 
140

>  <inspiration_ids>  (251) 
[140, 164]

>  <energy_score>  (251) 
-18.523061530226784

>  <distance_score>  (251) 
0.9882636587595593

>  <path>  (251) 
/opt/xchem-fragalysis-2/maxwin/BulkDock/SCRATCH/505735/C4022-P140/C4022-P140.minimised.mol

>  <scratch_subdir>  (251) 
/opt/xchem-fragalysis-2/maxwin/BulkDock/SCRATCH/505735/C4022-P140

>  <fragmenstein_runtime>  (251) 
11.893097162246704

>  <fragmenstein_outcome>  (251) 
acceptable

>  <fragmenstein_mode>  (251) 
expansion

>  <fragmenstein_error>  (251) 


$$$$
C4022-P164
     RDKit          3D

 46 50  0  0  0  0  0  0  0  0999 V2000
    2.6779   -7.5165   34.5814 O   0  0  0  0  0  0  0  0  0  0  0  0
    2.5345   -6.5008   35.1419 C   0  0  0  0  0  0  0  0  0  0  0  0
    1.6456   -5.3638   34.6098 C   0  0  0  0  0  0  0  0  0  0  0  0
    0.6589   -6.0061   33.7137 C   0  0  0  0  0  0  0  0  0  0  0  0
    0.6034   -6.1253   32.3714 C   0  0  0  0  0  0  0  0  0  0  0  0
    1.5888   -5.4458   31.1731 S   0  0  0  0  0  0  0  0  0  0  0  0
    0.5710   -4.1043   30.8132 C   0  0  0  0  0  0  0  0  0  0  0  0
   -0.3169   -3.5571   31.6056 N   0  0  0  0  0  0  0  0  0  0  0  0
   -0.6524   -2.3864   30.9786 C   0  0  0  0  0  0  0  0  0  0  0  0
   -1.4921   -1.3595   31.4177 C   0  0  0  0  0  0  0  0  0  0  0  0
   -1.6161   -0.2309   30.6040 C   0  0  0  0  0  0  0  0  0  0  0  0
   -0.9483   -0.1369   29.3859 C   0  0  0  0  0  0  0  0  0  0  0  0
   -1.0945    0.9715   28.6485 F   0  0  0  0  0  0  0  0  0  0  0  0
   -0.1258   -1.1555   28.9195 C   0  0  0  0  0  0  0  0  0  0  0  0
    0.0047   -2.2622   29.7558 C   0  0  0  0  0  0  0  0  0  0  0  0
    0.7461   -3.4077   29.6559 N   0  0  0  0  0  0  0  0  0  0  0  0
   -0.3828   -7.0290   32.0120 C   0  0  0  0  0  0  0  0  0  0  0  0
   -0.9710   -7.7542   31.0325 C   0  0  0  0  0  0  0  0  0  0  0  0
   -1.9450   -8.5208   31.6213 N   0  0  0  0  0  0  0  0  0  0  0  0
   -1.9456   -8.2800   32.9362 N   0  0  0  0  0  0  0  0  0  0  0  0
   -0.9934   -7.3886   33.1512 N   0  0  0  0  0  0  0  0  0  0  0  0
   -0.4566   -6.8230   34.2771 C   0  0  0  0  0  0  0  0  0  0  0  0
   -0.8219   -7.0069   35.4197 O   0  0  0  0  0  0  0  0  0  0  0  0
    3.1268   -6.0024   36.4822 N   0  0  0  0  0  0  0  0  0  0  0  0
    3.9377   -6.6813   37.4528 C   0  0  0  0  0  0  0  0  0  0  0  0
    3.1300   -7.1509   38.6325 C   0  0  0  0  0  0  0  0  0  0  0  0
    3.7270   -7.1977   39.9005 C   0  0  0  0  0  0  0  0  0  0  0  0
    3.0221   -7.6871   41.0014 C   0  0  0  0  0  0  0  0  0  0  0  0
    1.7156   -8.1432   40.8481 C   0  0  0  0  0  0  0  0  0  0  0  0
    1.1133   -8.1130   39.5945 C   0  0  0  0  0  0  0  0  0  0  0  0
    1.8159   -7.6264   38.4924 C   0  0  0  0  0  0  0  0  0  0  0  0
    2.2821   -4.6453   34.0849 H   0  0  0  0  0  0  0  0  0  0  0  0
    1.1303   -4.8468   35.4254 H   0  0  0  0  0  0  0  0  0  0  0  0
   -2.0117   -1.4344   32.3659 H   0  0  0  0  0  0  0  0  0  0  0  0
   -2.2560    0.5817   30.9094 H   0  0  0  0  0  0  0  0  0  0  0  0
    0.3771   -1.0698   27.9651 H   0  0  0  0  0  0  0  0  0  0  0  0
    1.3826   -3.6412   28.9100 H   0  0  0  0  0  0  0  0  0  0  0  0
   -0.7608   -7.7974   29.9754 H   0  0  0  0  0  0  0  0  0  0  0  0
    2.8587   -5.0366   36.6325 H   0  0  0  0  0  0  0  0  0  0  0  0
    4.7148   -5.9764   37.7651 H   0  0  0  0  0  0  0  0  0  0  0  0
    4.4073   -7.5445   36.9701 H   0  0  0  0  0  0  0  0  0  0  0  0
    4.7520   -6.8623   40.0418 H   0  0  0  0  0  0  0  0  0  0  0  0
    3.4956   -7.7250   41.9790 H   0  0  0  0  0  0  0  0  0  0  0  0
    1.1716   -8.5453   41.6988 H   0  0  0  0  0  0  0  0  0  0  0  0
    0.1077   -8.5062   39.4683 H   0  0  0  0  0  0  0  0  0  0  0  0
    1.3262   -7.6519   37.5222 H   0  0  0  0  0  0  0  0  0  0  0  0
  1  2  2  0
  2  3  1  0
  3  4  1  0
  4  5  2  0
  5  6  1  0
  6  7  1  0
  7  8  2  0
  8  9  1  0
  9 10  2  0
 10 11  1  0
 11 12  2  0
 12 13  1  0
 12 14  1  0
 14 15  2  0
 15 16  1  0
  5 17  1  0
 17 18  2  0
 18 19  1  0
 19 20  2  0
 20 21  1  0
 21 22  1  0
 22 23  2  0
  2 24  1  0
 24 25  1  0
 25 26  1  0
 26 27  2  0
 27 28  1  0
 28 29  2  0
 29 30  1  0
 30 31  2  0
 22  4  1  0
 31 26  1  0
 16  7  1  0
 21 17  1  0
 15  9  1  0
  3 32  1  0
  3 33  1  0
 10 34  1  0
 11 35  1  0
 14 36  1  0
 16 37  1  0
 18 38  1  0
 24 39  1  0
 25 40  1  0
 25 41  1  0
 27 42  1  0
 28 43  1  0
 29 44  1  0
 30 45  1  0
 31 46  1  0
M  END
>  <Energy>  (252) 
48.522954753062237

>  <compound_id>  (252) 
4022

>  <target_id>  (252) 
1

>  <reference_id>  (252) 
164

>  <inspiration_ids>  (252) 
[140, 164]

>  <energy_score>  (252) 
-27.223230229047772

>  <distance_score>  (252) 
0.9294955416608265

>  <path>  (252) 
/opt/xchem-fragalysis-2/maxwin/BulkDock/SCRATCH/505735/C4022-P164/C4022-P164.minimised.mol

>  <scratch_subdir>  (252) 
/opt/xchem-fragalysis-2/maxwin/BulkDock/SCRATCH/505735/C4022-P164

>  <fragmenstein_runtime>  (252) 
10.039747476577759

>  <fragmenstein_outcome>  (252) 
acceptable

>  <fragmenstein_mode>  (252) 
expansion

>  <fragmenstein_error>  (252) 


$$$$
C4023-P140
     RDKit          3D

 41 43  0  0  0  0  0  0  0  0999 V2000
    2.8170   -7.4785   34.6566 O   0  0  0  0  0  0  0  0  0  0  0  0
    2.8659   -6.5057   35.3042 C   0  0  0  0  0  0  0  0  0  0  0  0
    2.1733   -5.1788   34.8895 C   0  0  0  0  0  0  0  0  0  0  0  0
    1.0517   -5.4662   33.9780 N   0  0  0  0  0  0  0  0  0  0  0  0
    1.2123   -5.2682   32.6204 C   0  0  0  0  0  0  0  0  0  0  0  0
    0.3956   -5.8575   31.7593 C   0  0  0  0  0  0  0  0  0  0  0  0
    0.3128   -5.9286   30.3030 C   0  0  0  0  0  0  0  0  0  0  0  0
   -0.4786   -7.2225   30.1427 C   0  0  0  0  0  0  0  0  0  0  0  0
   -1.1769   -7.5528   31.4040 N   0  0  0  0  0  0  0  0  0  0  0  0
   -0.6014   -6.7901   32.2696 C   0  0  0  0  0  0  0  0  0  0  0  0
   -0.8809   -6.8465   33.5877 N   0  0  0  0  0  0  0  0  0  0  0  0
   -0.0680   -6.2192   34.4006 C   0  0  0  0  0  0  0  0  0  0  0  0
   -0.4533   -6.3723   35.8949 C   0  0  0  0  0  0  0  0  0  0  0  0
   -1.5097   -5.5410   36.2583 O   0  0  0  0  0  0  0  0  0  0  0  0
   -0.7623   -7.7101   36.1601 O   0  0  0  0  0  0  0  0  0  0  0  0
    0.5415   -6.0319   36.7465 F   0  0  0  0  0  0  0  0  0  0  0  0
    3.5450   -6.2433   36.6739 N   0  0  0  0  0  0  0  0  0  0  0  0
    4.2180   -7.1423   37.5680 C   0  0  0  0  0  0  0  0  0  0  0  0
    3.3972   -7.3544   38.8088 C   0  0  0  0  0  0  0  0  0  0  0  0
    3.9748   -7.2249   40.0762 C   0  0  0  0  0  0  0  0  0  0  0  0
    3.2171   -7.4598   41.2258 C   0  0  0  0  0  0  0  0  0  0  0  0
    1.8758   -7.8226   41.1233 C   0  0  0  0  0  0  0  0  0  0  0  0
    1.2905   -7.9569   39.8708 C   0  0  0  0  0  0  0  0  0  0  0  0
    2.0496   -7.7347   38.7237 C   0  0  0  0  0  0  0  0  0  0  0  0
    2.9364   -4.5634   34.3964 H   0  0  0  0  0  0  0  0  0  0  0  0
    1.8221   -4.6049   35.7513 H   0  0  0  0  0  0  0  0  0  0  0  0
    2.0347   -4.6351   32.3044 H   0  0  0  0  0  0  0  0  0  0  0  0
    1.2867   -5.9788   29.8097 H   0  0  0  0  0  0  0  0  0  0  0  0
   -0.2451   -5.0734   29.9094 H   0  0  0  0  0  0  0  0  0  0  0  0
    0.1783   -8.0571   29.8729 H   0  0  0  0  0  0  0  0  0  0  0  0
   -1.2303   -7.1219   29.3598 H   0  0  0  0  0  0  0  0  0  0  0  0
   -1.2581   -5.2660   37.1545 H   0  0  0  0  0  0  0  0  0  0  0  0
   -1.1781   -8.0436   35.3372 H   0  0  0  0  0  0  0  0  0  0  0  0
    3.4613   -5.2620   36.9107 H   0  0  0  0  0  0  0  0  0  0  0  0
    5.1900   -6.6967   37.8015 H   0  0  0  0  0  0  0  0  0  0  0  0
    4.3800   -8.0982   37.0597 H   0  0  0  0  0  0  0  0  0  0  0  0
    5.0216   -6.9517   40.1841 H   0  0  0  0  0  0  0  0  0  0  0  0
    3.6757   -7.3675   42.2071 H   0  0  0  0  0  0  0  0  0  0  0  0
    1.2913   -8.0219   42.0173 H   0  0  0  0  0  0  0  0  0  0  0  0
    0.2556   -8.2782   39.7811 H   0  0  0  0  0  0  0  0  0  0  0  0
    1.5784   -7.8967   37.7582 H   0  0  0  0  0  0  0  0  0  0  0  0
  1  2  2  0
  2  3  1  0
  3  4  1  0
  4  5  1  0
  5  6  2  0
  6  7  1  0
  7  8  1  0
  8  9  1  0
  9 10  2  0
 10 11  1  0
 11 12  2  0
 12 13  1  0
 13 14  1  0
 13 15  1  0
 13 16  1  0
  2 17  1  0
 17 18  1  0
 18 19  1  0
 19 20  2  0
 20 21  1  0
 21 22  2  0
 22 23  1  0
 23 24  2  0
 12  4  1  0
 24 19  1  0
 10  6  1  0
  3 25  1  0
  3 26  1  0
  5 27  1  0
  7 28  1  0
  7 29  1  0
  8 30  1  0
  8 31  1  0
 14 32  1  0
 15 33  1  0
 17 34  1  0
 18 35  1  0
 18 36  1  0
 20 37  1  0
 21 38  1  0
 22 39  1  0
 23 40  1  0
 24 41  1  0
M  END
>  <Energy>  (253) 
50.332561771198471

>  <compound_id>  (253) 
4023

>  <target_id>  (253) 
1

>  <reference_id>  (253) 
140

>  <inspiration_ids>  (253) 
[140, 165]

>  <energy_score>  (253) 
-19.676157232925817

>  <distance_score>  (253) 
1.1103850324755766

>  <path>  (253) 
/opt/xchem-fragalysis-2/maxwin/BulkDock/SCRATCH/505735/C4023-P140/C4023-P140.minimised.mol

>  <scratch_subdir>  (253) 
/opt/xchem-fragalysis-2/maxwin/BulkDock/SCRATCH/505735/C4023-P140

>  <fragmenstein_runtime>  (253) 
3.7180676460266113

>  <fragmenstein_outcome>  (253) 
too moved

>  <fragmenstein_mode>  (253) 
expansion

>  <fragmenstein_error>  (253) 


$$$$
C4023-P165
     RDKit          3D

 41 43  0  0  0  0  0  0  0  0999 V2000
    2.9571   -8.2786   34.9045 O   0  0  0  0  0  0  0  0  0  0  0  0
    2.9534   -7.3334   35.5911 C   0  0  0  0  0  0  0  0  0  0  0  0
    2.2565   -6.0053   35.2655 C   0  0  0  0  0  0  0  0  0  0  0  0
    1.3406   -6.1422   34.1387 N   0  0  0  0  0  0  0  0  0  0  0  0
    1.8081   -5.9191   32.8583 C   0  0  0  0  0  0  0  0  0  0  0  0
    0.9561   -5.7851   31.8547 C   0  0  0  0  0  0  0  0  0  0  0  0
    1.0458   -5.3115   30.4725 C   0  0  0  0  0  0  0  0  0  0  0  0
   -0.1991   -4.4284   30.4463 C   0  0  0  0  0  0  0  0  0  0  0  0
   -1.1676   -4.9535   31.4602 N   0  0  0  0  0  0  0  0  0  0  0  0
   -0.4459   -5.7007   32.2247 C   0  0  0  0  0  0  0  0  0  0  0  0
   -0.9109   -6.3053   33.3451 N   0  0  0  0  0  0  0  0  0  0  0  0
   -0.0298   -6.4402   34.3092 C   0  0  0  0  0  0  0  0  0  0  0  0
   -0.6223   -6.9338   35.6751 C   0  0  0  0  0  0  0  0  0  0  0  0
   -0.6988   -5.8989   36.6173 O   0  0  0  0  0  0  0  0  0  0  0  0
   -1.9020   -7.4902   35.5104 O   0  0  0  0  0  0  0  0  0  0  0  0
    0.1691   -7.8681   36.2487 F   0  0  0  0  0  0  0  0  0  0  0  0
    3.5158   -7.1283   37.0215 N   0  0  0  0  0  0  0  0  0  0  0  0
    4.1068   -8.0601   37.9278 C   0  0  0  0  0  0  0  0  0  0  0  0
    3.2565   -8.0295   39.1660 C   0  0  0  0  0  0  0  0  0  0  0  0
    3.8026   -7.6914   40.4051 C   0  0  0  0  0  0  0  0  0  0  0  0
    2.9827   -7.6224   41.5313 C   0  0  0  0  0  0  0  0  0  0  0  0
    1.6153   -7.8818   41.4285 C   0  0  0  0  0  0  0  0  0  0  0  0
    1.0600   -8.2174   40.1997 C   0  0  0  0  0  0  0  0  0  0  0  0
    1.8775   -8.2941   39.0775 C   0  0  0  0  0  0  0  0  0  0  0  0
    3.0396   -5.2700   35.0386 H   0  0  0  0  0  0  0  0  0  0  0  0
    1.7243   -5.6302   36.1443 H   0  0  0  0  0  0  0  0  0  0  0  0
    2.8771   -5.7852   32.7398 H   0  0  0  0  0  0  0  0  0  0  0  0
    0.9597   -6.1532   29.7821 H   0  0  0  0  0  0  0  0  0  0  0  0
    1.9541   -4.7470   30.2476 H   0  0  0  0  0  0  0  0  0  0  0  0
   -0.6498   -4.4188   29.4499 H   0  0  0  0  0  0  0  0  0  0  0  0
    0.0461   -3.3910   30.7071 H   0  0  0  0  0  0  0  0  0  0  0  0
   -0.6706   -6.4009   37.4484 H   0  0  0  0  0  0  0  0  0  0  0  0
   -2.1069   -7.2664   34.5823 H   0  0  0  0  0  0  0  0  0  0  0  0
    3.4143   -6.1557   37.2893 H   0  0  0  0  0  0  0  0  0  0  0  0
    5.1329   -7.7359   38.1243 H   0  0  0  0  0  0  0  0  0  0  0  0
    4.1213   -9.0589   37.4830 H   0  0  0  0  0  0  0  0  0  0  0  0
    4.8633   -7.4765   40.5075 H   0  0  0  0  0  0  0  0  0  0  0  0
    3.4092   -7.3613   42.4970 H   0  0  0  0  0  0  0  0  0  0  0  0
    0.9838   -7.8269   42.3116 H   0  0  0  0  0  0  0  0  0  0  0  0
   -0.0001   -8.4421   40.1142 H   0  0  0  0  0  0  0  0  0  0  0  0
    1.4291   -8.5789   38.1276 H   0  0  0  0  0  0  0  0  0  0  0  0
  1  2  2  0
  2  3  1  0
  3  4  1  0
  4  5  1  0
  5  6  2  0
  6  7  1  0
  7  8  1  0
  8  9  1  0
  9 10  2  0
 10 11  1  0
 11 12  2  0
 12 13  1  0
 13 14  1  0
 13 15  1  0
 13 16  1  0
  2 17  1  0
 17 18  1  0
 18 19  1  0
 19 20  2  0
 20 21  1  0
 21 22  2  0
 22 23  1  0
 23 24  2  0
 12  4  1  0
 24 19  1  0
 10  6  1  0
  3 25  1  0
  3 26  1  0
  5 27  1  0
  7 28  1  0
  7 29  1  0
  8 30  1  0
  8 31  1  0
 14 32  1  0
 15 33  1  0
 17 34  1  0
 18 35  1  0
 18 36  1  0
 20 37  1  0
 21 38  1  0
 22 39  1  0
 23 40  1  0
 24 41  1  0
M  END
>  <Energy>  (254) 
53.056165875849331

>  <compound_id>  (254) 
4023

>  <target_id>  (254) 
1

>  <reference_id>  (254) 
165

>  <inspiration_ids>  (254) 
[140, 165]

>  <energy_score>  (254) 
-16.952553128274815

>  <distance_score>  (254) 
1.4470908698519462

>  <path>  (254) 
/opt/xchem-fragalysis-2/maxwin/BulkDock/SCRATCH/505735/C4023-P165/C4023-P165.minimised.mol

>  <scratch_subdir>  (254) 
/opt/xchem-fragalysis-2/maxwin/BulkDock/SCRATCH/505735/C4023-P165

>  <fragmenstein_runtime>  (254) 
3.1755547523498535

>  <fragmenstein_outcome>  (254) 
too moved

>  <fragmenstein_mode>  (254) 
expansion

>  <fragmenstein_error>  (254) 


$$$$
C4024-P140
     RDKit          3D

 49 51  0  0  0  0  0  0  0  0999 V2000
    2.6237   -7.2584   34.3434 O   0  0  0  0  0  0  0  0  0  0  0  0
    2.3525   -6.3327   35.0030 C   0  0  0  0  0  0  0  0  0  0  0  0
    1.3180   -5.2660   34.5712 C   0  0  0  0  0  0  0  0  0  0  0  0
    0.3623   -5.8608   33.6334 N   0  0  0  0  0  0  0  0  0  0  0  0
    0.4486   -5.7186   32.2452 C   0  0  0  0  0  0  0  0  0  0  0  0
    1.3932   -4.7018   31.6556 C   0  0  0  0  0  0  0  0  0  0  0  0
    1.4510   -4.6189   30.1230 C   0  0  0  0  0  0  0  0  0  0  0  0
    2.3735   -3.5189   29.7536 N   0  0  0  0  0  0  0  0  0  0  0  0
    3.1852   -3.6275   28.2744 S   0  0  0  0  0  0  0  0  0  0  0  0
    2.3137   -4.3039   27.3417 O   0  0  0  0  0  0  0  0  0  0  0  0
    3.7320   -2.3176   28.0158 O   0  0  0  0  0  0  0  0  0  0  0  0
    4.5837   -4.6573   28.5221 C   0  0  0  0  0  0  0  0  0  0  0  0
    5.6840   -4.6057   29.3562 C   0  0  0  0  0  0  0  0  0  0  0  0
    6.5128   -5.7441   29.1445 C   0  0  0  0  0  0  0  0  0  0  0  0
    6.0922   -6.6301   28.2454 N   0  0  0  0  0  0  0  0  0  0  0  0
    4.7203   -6.0350   27.5298 S   0  0  0  0  0  0  0  0  0  0  0  0
   -0.3101   -6.5030   31.4679 C   0  0  0  0  0  0  0  0  0  0  0  0
   -1.2291   -7.4518   32.0992 C   0  0  0  0  0  0  0  0  0  0  0  0
   -1.7039   -8.3538   31.4232 O   0  0  0  0  0  0  0  0  0  0  0  0
   -1.5716   -7.1340   33.3813 N   0  0  0  0  0  0  0  0  0  0  0  0
   -0.5891   -6.6995   34.2296 C   0  0  0  0  0  0  0  0  0  0  0  0
   -0.6142   -6.9548   35.4299 O   0  0  0  0  0  0  0  0  0  0  0  0
    2.8876   -5.8971   36.3908 N   0  0  0  0  0  0  0  0  0  0  0  0
    3.7917   -6.5570   37.2908 C   0  0  0  0  0  0  0  0  0  0  0  0
    3.0980   -7.0147   38.5460 C   0  0  0  0  0  0  0  0  0  0  0  0
    3.8280   -7.1224   39.7388 C   0  0  0  0  0  0  0  0  0  0  0  0
    3.2224   -7.5970   40.9042 C   0  0  0  0  0  0  0  0  0  0  0  0
    1.8824   -7.9738   40.8917 C   0  0  0  0  0  0  0  0  0  0  0  0
    1.1482   -7.8805   39.7144 C   0  0  0  0  0  0  0  0  0  0  0  0
    1.7522   -7.4151   38.5467 C   0  0  0  0  0  0  0  0  0  0  0  0
    1.8454   -4.4123   34.1400 H   0  0  0  0  0  0  0  0  0  0  0  0
    0.7621   -4.9088   35.4461 H   0  0  0  0  0  0  0  0  0  0  0  0
    2.4101   -4.9142   32.0114 H   0  0  0  0  0  0  0  0  0  0  0  0
    1.1199   -3.7109   32.0427 H   0  0  0  0  0  0  0  0  0  0  0  0
    1.8176   -5.5679   29.7182 H   0  0  0  0  0  0  0  0  0  0  0  0
    0.4657   -4.3959   29.6998 H   0  0  0  0  0  0  0  0  0  0  0  0
    1.9605   -2.5837   29.8276 H   0  0  0  0  0  0  0  0  0  0  0  0
    5.8768   -3.8076   30.0609 H   0  0  0  0  0  0  0  0  0  0  0  0
    7.4412   -5.9625   29.6596 H   0  0  0  0  0  0  0  0  0  0  0  0
   -0.2958   -6.5264   30.3873 H   0  0  0  0  0  0  0  0  0  0  0  0
   -2.1217   -6.2920   33.2931 H   0  0  0  0  0  0  0  0  0  0  0  0
    2.4956   -4.9960   36.6372 H   0  0  0  0  0  0  0  0  0  0  0  0
    4.2285   -7.4195   36.7774 H   0  0  0  0  0  0  0  0  0  0  0  0
    4.5829   -5.8380   37.5258 H   0  0  0  0  0  0  0  0  0  0  0  0
    4.8800   -6.8481   39.7692 H   0  0  0  0  0  0  0  0  0  0  0  0
    3.7990   -7.6856   41.8211 H   0  0  0  0  0  0  0  0  0  0  0  0
    1.4137   -8.3662   41.7902 H   0  0  0  0  0  0  0  0  0  0  0  0
    0.1143   -8.2162   39.6940 H   0  0  0  0  0  0  0  0  0  0  0  0
    1.1586   -7.4038   37.6349 H   0  0  0  0  0  0  0  0  0  0  0  0
  1  2  2  0
  2  3  1  0
  3  4  1  0
  4  5  1  0
  5  6  1  0
  6  7  1  0
  7  8  1  0
  8  9  1  0
  9 10  2  0
  9 11  2  0
  9 12  1  0
 12 13  2  0
 13 14  1  0
 14 15  2  0
 15 16  1  0
  5 17  2  0
 17 18  1  0
 18 19  2  0
 18 20  1  0
 20 21  1  0
 21 22  2  0
  2 23  1  0
 23 24  1  0
 24 25  1  0
 25 26  2  0
 26 27  1  0
 27 28  2  0
 28 29  1  0
 29 30  2  0
 21  4  1  0
 30 25  1  0
 16 12  1  0
  3 31  1  0
  3 32  1  0
  6 33  1  0
  6 34  1  0
  7 35  1  0
  7 36  1  0
  8 37  1  0
 13 38  1  0
 14 39  1  0
 17 40  1  0
 20 41  1  0
 23 42  1  0
 24 43  1  0
 24 44  1  0
 26 45  1  0
 27 46  1  0
 28 47  1  0
 29 48  1  0
 30 49  1  0
M  END
>  <Energy>  (255) 
-80.563691352470173

>  <compound_id>  (255) 
4024

>  <target_id>  (255) 
1

>  <reference_id>  (255) 
140

>  <inspiration_ids>  (255) 
[140, 166]

>  <energy_score>  (255) 
-18.462541382646563

>  <distance_score>  (255) 
1.1858791925319347

>  <path>  (255) 
/opt/xchem-fragalysis-2/maxwin/BulkDock/SCRATCH/505735/C4024-P140/C4024-P140.minimised.mol

>  <scratch_subdir>  (255) 
/opt/xchem-fragalysis-2/maxwin/BulkDock/SCRATCH/505735/C4024-P140

>  <fragmenstein_runtime>  (255) 
6.163398742675781

>  <fragmenstein_outcome>  (255) 
too moved

>  <fragmenstein_mode>  (255) 
expansion

>  <fragmenstein_error>  (255) 


$$$$
C4024-P166
     RDKit          3D

 49 51  0  0  0  0  0  0  0  0999 V2000
    1.8594   -3.5915   35.1428 O   0  0  0  0  0  0  0  0  0  0  0  0
    1.7395   -4.7360   35.3328 C   0  0  0  0  0  0  0  0  0  0  0  0
    1.7443   -5.7702   34.2009 C   0  0  0  0  0  0  0  0  0  0  0  0
    0.4426   -6.2105   33.6915 N   0  0  0  0  0  0  0  0  0  0  0  0
    0.0039   -5.8344   32.4300 C   0  0  0  0  0  0  0  0  0  0  0  0
    0.5345   -4.6011   31.7480 C   0  0  0  0  0  0  0  0  0  0  0  0
    1.5699   -4.9919   30.7071 C   0  0  0  0  0  0  0  0  0  0  0  0
    2.4645   -3.8777   30.3848 N   0  0  0  0  0  0  0  0  0  0  0  0
    2.1966   -2.9914   28.9845 S   0  0  0  0  0  0  0  0  0  0  0  0
    1.9017   -3.9515   27.9424 O   0  0  0  0  0  0  0  0  0  0  0  0
    3.2846   -2.0495   28.8741 O   0  0  0  0  0  0  0  0  0  0  0  0
    0.7350   -2.0547   29.2316 C   0  0  0  0  0  0  0  0  0  0  0  0
   -0.5585   -2.1124   28.7557 C   0  0  0  0  0  0  0  0  0  0  0  0
   -1.3507   -1.0870   29.3409 C   0  0  0  0  0  0  0  0  0  0  0  0
   -0.7552   -0.3137   30.2448 N   0  0  0  0  0  0  0  0  0  0  0  0
    0.8375   -0.7718   30.3526 S   0  0  0  0  0  0  0  0  0  0  0  0
   -0.8755   -6.6036   31.7834 C   0  0  0  0  0  0  0  0  0  0  0  0
   -1.3927   -7.8151   32.4160 C   0  0  0  0  0  0  0  0  0  0  0  0
   -1.9108   -8.6651   31.7052 O   0  0  0  0  0  0  0  0  0  0  0  0
   -1.2050   -7.8878   33.7630 N   0  0  0  0  0  0  0  0  0  0  0  0
   -0.1938   -7.2262   34.4085 C   0  0  0  0  0  0  0  0  0  0  0  0
    0.1835   -7.5726   35.5244 O   0  0  0  0  0  0  0  0  0  0  0  0
    1.6563   -5.5280   36.6569 N   0  0  0  0  0  0  0  0  0  0  0  0
    1.7978   -5.0898   38.0142 C   0  0  0  0  0  0  0  0  0  0  0  0
    1.9696   -6.2832   38.9136 C   0  0  0  0  0  0  0  0  0  0  0  0
    3.1646   -6.5278   39.6023 C   0  0  0  0  0  0  0  0  0  0  0  0
    3.2798   -7.6413   40.4373 C   0  0  0  0  0  0  0  0  0  0  0  0
    2.2096   -8.5230   40.5790 C   0  0  0  0  0  0  0  0  0  0  0  0
    1.0264   -8.2998   39.8814 C   0  0  0  0  0  0  0  0  0  0  0  0
    0.9070   -7.1876   39.0546 C   0  0  0  0  0  0  0  0  0  0  0  0
    2.3009   -6.6568   34.5347 H   0  0  0  0  0  0  0  0  0  0  0  0
    2.3658   -5.3664   33.3950 H   0  0  0  0  0  0  0  0  0  0  0  0
   -0.2909   -4.0658   31.2612 H   0  0  0  0  0  0  0  0  0  0  0  0
    0.9367   -3.8880   32.4760 H   0  0  0  0  0  0  0  0  0  0  0  0
    2.2187   -5.7790   31.0993 H   0  0  0  0  0  0  0  0  0  0  0  0
    1.0958   -5.4085   29.8130 H   0  0  0  0  0  0  0  0  0  0  0  0
    2.8662   -3.3281   31.1469 H   0  0  0  0  0  0  0  0  0  0  0  0
   -0.9147   -2.8294   28.0318 H   0  0  0  0  0  0  0  0  0  0  0  0
   -2.3944   -0.8924   29.1242 H   0  0  0  0  0  0  0  0  0  0  0  0
   -1.1781   -6.4300   30.7635 H   0  0  0  0  0  0  0  0  0  0  0  0
   -1.5079   -8.7475   34.2212 H   0  0  0  0  0  0  0  0  0  0  0  0
    1.4683   -6.5121   36.4548 H   0  0  0  0  0  0  0  0  0  0  0  0
    2.6511   -4.4059   38.0661 H   0  0  0  0  0  0  0  0  0  0  0  0
    0.9032   -4.5210   38.2887 H   0  0  0  0  0  0  0  0  0  0  0  0
    4.0064   -5.8468   39.5030 H   0  0  0  0  0  0  0  0  0  0  0  0
    4.2051   -7.8201   40.9786 H   0  0  0  0  0  0  0  0  0  0  0  0
    2.3002   -9.3909   41.2260 H   0  0  0  0  0  0  0  0  0  0  0  0
    0.1973   -8.9963   39.9727 H   0  0  0  0  0  0  0  0  0  0  0  0
   -0.0244   -7.0295   38.5137 H   0  0  0  0  0  0  0  0  0  0  0  0
  1  2  2  0
  2  3  1  0
  3  4  1  0
  4  5  1  0
  5  6  1  0
  6  7  1  0
  7  8  1  0
  8  9  1  0
  9 10  2  0
  9 11  2  0
  9 12  1  0
 12 13  2  0
 13 14  1  0
 14 15  2  0
 15 16  1  0
  5 17  2  0
 17 18  1  0
 18 19  2  0
 18 20  1  0
 20 21  1  0
 21 22  2  0
  2 23  1  0
 23 24  1  0
 24 25  1  0
 25 26  2  0
 26 27  1  0
 27 28  2  0
 28 29  1  0
 29 30  2  0
 21  4  1  0
 30 25  1  0
 16 12  1  0
  3 31  1  0
  3 32  1  0
  6 33  1  0
  6 34  1  0
  7 35  1  0
  7 36  1  0
  8 37  1  0
 13 38  1  0
 14 39  1  0
 17 40  1  0
 20 41  1  0
 23 42  1  0
 24 43  1  0
 24 44  1  0
 26 45  1  0
 27 46  1  0
 28 47  1  0
 29 48  1  0
 30 49  1  0
M  END
>  <Energy>  (256) 
-104.70652702135774

>  <compound_id>  (256) 
4024

>  <target_id>  (256) 
1

>  <reference_id>  (256) 
166

>  <inspiration_ids>  (256) 
[140, 166]

>  <energy_score>  (256) 
-42.6053770515343

>  <distance_score>  (256) 
1.5872813776135688

>  <path>  (256) 
/opt/xchem-fragalysis-2/maxwin/BulkDock/SCRATCH/505735/C4024-P166/C4024-P166.minimised.mol

>  <scratch_subdir>  (256) 
/opt/xchem-fragalysis-2/maxwin/BulkDock/SCRATCH/505735/C4024-P166

>  <fragmenstein_runtime>  (256) 
6.5505053997039795

>  <fragmenstein_outcome>  (256) 
too moved

>  <fragmenstein_mode>  (256) 
expansion

>  <fragmenstein_error>  (256) 


$$$$
C4024-P140
     RDKit          3D

 49 51  0  0  0  0  0  0  0  0999 V2000
    2.5034   -5.3016   35.7663 O   0  0  0  0  0  0  0  0  0  0  0  0
    1.7151   -4.7844   36.4562 C   0  0  0  0  0  0  0  0  0  0  0  0
    0.3202   -4.3264   35.9381 C   0  0  0  0  0  0  0  0  0  0  0  0
   -0.1303   -5.2796   34.9132 N   0  0  0  0  0  0  0  0  0  0  0  0
    0.3990   -5.2542   33.6260 C   0  0  0  0  0  0  0  0  0  0  0  0
    1.1801   -4.0291   33.1848 C   0  0  0  0  0  0  0  0  0  0  0  0
    2.0342   -4.0731   31.9298 C   0  0  0  0  0  0  0  0  0  0  0  0
    1.4916   -3.2925   30.8116 N   0  0  0  0  0  0  0  0  0  0  0  0
    0.0897   -3.8157   30.0538 S   0  0  0  0  0  0  0  0  0  0  0  0
    0.0575   -3.1893   28.7584 O   0  0  0  0  0  0  0  0  0  0  0  0
   -0.9937   -3.7128   31.0054 O   0  0  0  0  0  0  0  0  0  0  0  0
    0.2886   -5.5272   29.7861 C   0  0  0  0  0  0  0  0  0  0  0  0
   -0.4628   -6.6589   30.0438 C   0  0  0  0  0  0  0  0  0  0  0  0
    0.2511   -7.8386   29.7151 C   0  0  0  0  0  0  0  0  0  0  0  0
    1.4013   -7.6506   29.0578 N   0  0  0  0  0  0  0  0  0  0  0  0
    1.7920   -6.0011   29.1192 S   0  0  0  0  0  0  0  0  0  0  0  0
    0.2621   -6.3582   32.8906 C   0  0  0  0  0  0  0  0  0  0  0  0
   -0.7453   -7.3702   33.2256 C   0  0  0  0  0  0  0  0  0  0  0  0
   -1.1545   -8.1639   32.3863 O   0  0  0  0  0  0  0  0  0  0  0  0
   -1.1615   -7.3480   34.5064 N   0  0  0  0  0  0  0  0  0  0  0  0
   -0.7662   -6.4126   35.4097 C   0  0  0  0  0  0  0  0  0  0  0  0
   -0.9593   -6.5946   36.6049 O   0  0  0  0  0  0  0  0  0  0  0  0
    1.7670   -4.4563   37.9668 N   0  0  0  0  0  0  0  0  0  0  0  0
    2.7533   -4.7792   38.9566 C   0  0  0  0  0  0  0  0  0  0  0  0
    2.5735   -6.1916   39.4552 C   0  0  0  0  0  0  0  0  0  0  0  0
    3.6635   -6.8864   39.9984 C   0  0  0  0  0  0  0  0  0  0  0  0
    3.4926   -8.1631   40.5361 C   0  0  0  0  0  0  0  0  0  0  0  0
    2.2329   -8.7558   40.5387 C   0  0  0  0  0  0  0  0  0  0  0  0
    1.1444   -8.0788   40.0008 C   0  0  0  0  0  0  0  0  0  0  0  0
    1.3115   -6.8088   39.4619 C   0  0  0  0  0  0  0  0  0  0  0  0
    0.3869   -3.3111   35.5372 H   0  0  0  0  0  0  0  0  0  0  0  0
   -0.4115   -4.3023   36.7526 H   0  0  0  0  0  0  0  0  0  0  0  0
    1.8909   -3.7724   33.9763 H   0  0  0  0  0  0  0  0  0  0  0  0
    0.4855   -3.1801   33.1386 H   0  0  0  0  0  0  0  0  0  0  0  0
    2.9840   -3.5716   32.1677 H   0  0  0  0  0  0  0  0  0  0  0  0
    2.3453   -5.0769   31.6487 H   0  0  0  0  0  0  0  0  0  0  0  0
    1.4515   -2.2814   30.9596 H   0  0  0  0  0  0  0  0  0  0  0  0
   -1.4296   -6.6632   30.5189 H   0  0  0  0  0  0  0  0  0  0  0  0
   -0.1094   -8.8513   29.8474 H   0  0  0  0  0  0  0  0  0  0  0  0
    0.8371   -6.5406   32.0116 H   0  0  0  0  0  0  0  0  0  0  0  0
   -1.6182   -8.1894   34.8391 H   0  0  0  0  0  0  0  0  0  0  0  0
    0.9425   -3.9291   38.2269 H   0  0  0  0  0  0  0  0  0  0  0  0
    2.6593   -4.0699   39.7841 H   0  0  0  0  0  0  0  0  0  0  0  0
    3.7348   -4.6717   38.4838 H   0  0  0  0  0  0  0  0  0  0  0  0
    4.6518   -6.4335   40.0166 H   0  0  0  0  0  0  0  0  0  0  0  0
    4.3410   -8.6975   40.9546 H   0  0  0  0  0  0  0  0  0  0  0  0
    2.0919   -9.7554   40.9441 H   0  0  0  0  0  0  0  0  0  0  0  0
    0.1651   -8.5499   39.9964 H   0  0  0  0  0  0  0  0  0  0  0  0
    0.4346   -6.3100   39.0571 H   0  0  0  0  0  0  0  0  0  0  0  0
  1  2  2  0
  2  3  1  0
  3  4  1  0
  4  5  1  0
  5  6  1  0
  6  7  1  0
  7  8  1  0
  8  9  1  0
  9 10  2  0
  9 11  2  0
  9 12  1  0
 12 13  2  0
 13 14  1  0
 14 15  2  0
 15 16  1  0
  5 17  2  0
 17 18  1  0
 18 19  2  0
 18 20  1  0
 20 21  1  0
 21 22  2  0
  2 23  1  0
 23 24  1  0
 24 25  1  0
 25 26  2  0
 26 27  1  0
 27 28  2  0
 28 29  1  0
 29 30  2  0
 21  4  1  0
 30 25  1  0
 16 12  1  0
  3 31  1  0
  3 32  1  0
  6 33  1  0
  6 34  1  0
  7 35  1  0
  7 36  1  0
  8 37  1  0
 13 38  1  0
 14 39  1  0
 17 40  1  0
 20 41  1  0
 23 42  1  0
 24 43  1  0
 24 44  1  0
 26 45  1  0
 27 46  1  0
 28 47  1  0
 29 48  1  0
 30 49  1  0
M  END
>  <Energy>  (257) 
-83.296691344239505

>  <compound_id>  (257) 
4024

>  <target_id>  (257) 
1

>  <reference_id>  (257) 
140

>  <inspiration_ids>  (257) 
[140, 167]

>  <energy_score>  (257) 
-23.91892605713644

>  <distance_score>  (257) 
1.7058249029538923

>  <path>  (257) 
/opt/xchem-fragalysis-2/maxwin/BulkDock/SCRATCH/505735/C4024-P140/C4024-P140.minimised.mol

>  <scratch_subdir>  (257) 
/opt/xchem-fragalysis-2/maxwin/BulkDock/SCRATCH/505735/C4024-P140

>  <fragmenstein_runtime>  (257) 
5.316529035568237

>  <fragmenstein_outcome>  (257) 
too moved

>  <fragmenstein_mode>  (257) 
expansion

>  <fragmenstein_error>  (257) 


$$$$
C4024-P167
     RDKit          3D

 49 51  0  0  0  0  0  0  0  0999 V2000
    3.3573   -5.3277   34.0098 O   0  0  0  0  0  0  0  0  0  0  0  0
    2.4147   -5.4874   34.6810 C   0  0  0  0  0  0  0  0  0  0  0  0
    1.0247   -4.9335   34.2996 C   0  0  0  0  0  0  0  0  0  0  0  0
    0.2561   -5.9399   33.5592 N   0  0  0  0  0  0  0  0  0  0  0  0
    0.2490   -5.9935   32.1653 C   0  0  0  0  0  0  0  0  0  0  0  0
    1.1064   -5.0254   31.3686 C   0  0  0  0  0  0  0  0  0  0  0  0
    1.2143   -5.3054   29.8626 C   0  0  0  0  0  0  0  0  0  0  0  0
    2.4873   -4.7453   29.3419 N   0  0  0  0  0  0  0  0  0  0  0  0
    3.1558   -5.5408   28.0017 S   0  0  0  0  0  0  0  0  0  0  0  0
    2.6117   -4.8968   26.8299 O   0  0  0  0  0  0  0  0  0  0  0  0
    3.0391   -6.9709   28.2113 O   0  0  0  0  0  0  0  0  0  0  0  0
    4.8699   -5.1975   28.0208 C   0  0  0  0  0  0  0  0  0  0  0  0
    5.7416   -4.6272   28.9273 C   0  0  0  0  0  0  0  0  0  0  0  0
    7.0638   -4.6304   28.3987 C   0  0  0  0  0  0  0  0  0  0  0  0
    7.2256   -5.1562   27.1876 N   0  0  0  0  0  0  0  0  0  0  0  0
    5.7466   -5.6808   26.6420 S   0  0  0  0  0  0  0  0  0  0  0  0
   -0.4932   -6.9277   31.5595 C   0  0  0  0  0  0  0  0  0  0  0  0
   -1.2657   -7.9034   32.3244 C   0  0  0  0  0  0  0  0  0  0  0  0
   -1.9078   -8.7343   31.6974 O   0  0  0  0  0  0  0  0  0  0  0  0
   -1.1801   -7.7988   33.6755 N   0  0  0  0  0  0  0  0  0  0  0  0
   -0.4526   -6.8541   34.3456 C   0  0  0  0  0  0  0  0  0  0  0  0
   -0.3904   -6.8393   35.5727 O   0  0  0  0  0  0  0  0  0  0  0  0
    2.2567   -6.2362   36.0275 N   0  0  0  0  0  0  0  0  0  0  0  0
    3.2001   -7.0200   36.7752 C   0  0  0  0  0  0  0  0  0  0  0  0
    2.7027   -7.3592   38.1529 C   0  0  0  0  0  0  0  0  0  0  0  0
    3.4982   -7.1211   39.2826 C   0  0  0  0  0  0  0  0  0  0  0  0
    3.0489   -7.4812   40.5562 C   0  0  0  0  0  0  0  0  0  0  0  0
    1.8020   -8.0833   40.7153 C   0  0  0  0  0  0  0  0  0  0  0  0
    1.0048   -8.3301   39.6019 C   0  0  0  0  0  0  0  0  0  0  0  0
    1.4542   -7.9760   38.3304 C   0  0  0  0  0  0  0  0  0  0  0  0
    1.1543   -4.0167   33.7167 H   0  0  0  0  0  0  0  0  0  0  0  0
    0.4825   -4.6274   35.2024 H   0  0  0  0  0  0  0  0  0  0  0  0
    2.1217   -5.0530   31.7801 H   0  0  0  0  0  0  0  0  0  0  0  0
    0.7313   -4.0035   31.5043 H   0  0  0  0  0  0  0  0  0  0  0  0
    0.3718   -4.8545   29.3291 H   0  0  0  0  0  0  0  0  0  0  0  0
    1.2203   -6.3810   29.6837 H   0  0  0  0  0  0  0  0  0  0  0  0
    2.4119   -3.7422   29.1442 H   0  0  0  0  0  0  0  0  0  0  0  0
    5.4556   -4.2445   29.8981 H   0  0  0  0  0  0  0  0  0  0  0  0
    7.9483   -4.2466   28.8931 H   0  0  0  0  0  0  0  0  0  0  0  0
   -0.5801   -7.0603   30.4908 H   0  0  0  0  0  0  0  0  0  0  0  0
   -1.6790   -8.4832   34.2384 H   0  0  0  0  0  0  0  0  0  0  0  0
    1.2692   -6.2501   36.2973 H   0  0  0  0  0  0  0  0  0  0  0  0
    4.1389   -6.4569   36.8063 H   0  0  0  0  0  0  0  0  0  0  0  0
    3.3929   -7.9393   36.2112 H   0  0  0  0  0  0  0  0  0  0  0  0
    4.4771   -6.6588   39.1798 H   0  0  0  0  0  0  0  0  0  0  0  0
    3.6755   -7.2981   41.4250 H   0  0  0  0  0  0  0  0  0  0  0  0
    1.4574   -8.3779   41.7025 H   0  0  0  0  0  0  0  0  0  0  0  0
    0.0422   -8.8287   39.7081 H   0  0  0  0  0  0  0  0  0  0  0  0
    0.8145   -8.2123   37.4809 H   0  0  0  0  0  0  0  0  0  0  0  0
  1  2  2  0
  2  3  1  0
  3  4  1  0
  4  5  1  0
  5  6  1  0
  6  7  1  0
  7  8  1  0
  8  9  1  0
  9 10  2  0
  9 11  2  0
  9 12  1  0
 12 13  2  0
 13 14  1  0
 14 15  2  0
 15 16  1  0
  5 17  2  0
 17 18  1  0
 18 19  2  0
 18 20  1  0
 20 21  1  0
 21 22  2  0
  2 23  1  0
 23 24  1  0
 24 25  1  0
 25 26  2  0
 26 27  1  0
 27 28  2  0
 28 29  1  0
 29 30  2  0
 21  4  1  0
 30 25  1  0
 16 12  1  0
  3 31  1  0
  3 32  1  0
  6 33  1  0
  6 34  1  0
  7 35  1  0
  7 36  1  0
  8 37  1  0
 13 38  1  0
 14 39  1  0
 17 40  1  0
 20 41  1  0
 23 42  1  0
 24 43  1  0
 24 44  1  0
 26 45  1  0
 27 46  1  0
 28 47  1  0
 29 48  1  0
 30 49  1  0
M  END
>  <Energy>  (258) 
-109.14395486412458

>  <compound_id>  (258) 
4024

>  <target_id>  (258) 
1

>  <reference_id>  (258) 
167

>  <inspiration_ids>  (258) 
[140, 167]

>  <energy_score>  (258) 
-49.76618957702217

>  <distance_score>  (258) 
0.9891630509641949

>  <path>  (258) 
/opt/xchem-fragalysis-2/maxwin/BulkDock/SCRATCH/505735/C4024-P167/C4024-P167.minimised.mol

>  <scratch_subdir>  (258) 
/opt/xchem-fragalysis-2/maxwin/BulkDock/SCRATCH/505735/C4024-P167

>  <fragmenstein_runtime>  (258) 
9.584403276443481

>  <fragmenstein_outcome>  (258) 
acceptable

>  <fragmenstein_mode>  (258) 
expansion

>  <fragmenstein_error>  (258) 


$$$$
C4025-P140
     RDKit          3D

 54 56  0  0  0  0  0  0  0  0999 V2000
    3.1679   -8.1243   34.6040 O   0  0  0  0  0  0  0  0  0  0  0  0
    3.0220   -7.0615   35.0620 C   0  0  0  0  0  0  0  0  0  0  0  0
    2.3364   -5.9271   34.2412 C   0  0  0  0  0  0  0  0  0  0  0  0
    0.9818   -6.1701   33.7030 N   0  0  0  0  0  0  0  0  0  0  0  0
    0.3907   -5.2648   32.8328 C   0  0  0  0  0  0  0  0  0  0  0  0
    0.7034   -3.7916   32.9961 C   0  0  0  0  0  0  0  0  0  0  0  0
    0.3459   -3.1845   34.3937 C   0  0  0  0  0  0  0  0  0  0  0  0
   -0.5124   -4.0472   35.2202 N   0  0  0  0  0  0  0  0  0  0  0  0
    0.0217   -4.7796   36.6399 S   0  0  0  0  0  0  0  0  0  0  0  0
   -0.8252   -5.9271   36.8609 O   0  0  0  0  0  0  0  0  0  0  0  0
    1.4637   -4.8413   36.6306 O   0  0  0  0  0  0  0  0  0  0  0  0
   -0.3561   -3.5806   37.8539 C   0  0  0  0  0  0  0  0  0  0  0  0
   -1.4354   -3.7940   38.7005 C   0  0  0  0  0  0  0  0  0  0  0  0
   -1.7588   -2.8413   39.6545 C   0  0  0  0  0  0  0  0  0  0  0  0
   -0.9525   -1.7169   39.7856 C   0  0  0  0  0  0  0  0  0  0  0  0
   -1.2223   -0.7610   40.7205 O   0  0  0  0  0  0  0  0  0  0  0  0
    0.1725   -1.5375   38.9889 C   0  0  0  0  0  0  0  0  0  0  0  0
    0.4789   -2.4757   38.0121 C   0  0  0  0  0  0  0  0  0  0  0  0
   -0.5899   -5.6946   32.0236 C   0  0  0  0  0  0  0  0  0  0  0  0
   -1.1024   -7.0656   32.2321 C   0  0  0  0  0  0  0  0  0  0  0  0
   -1.6766   -7.6895   31.3491 O   0  0  0  0  0  0  0  0  0  0  0  0
   -0.9366   -7.4903   33.5174 N   0  0  0  0  0  0  0  0  0  0  0  0
    0.1645   -7.1469   34.2536 C   0  0  0  0  0  0  0  0  0  0  0  0
    0.4065   -7.7171   35.3058 O   0  0  0  0  0  0  0  0  0  0  0  0
    3.4994   -6.4791   36.4069 N   0  0  0  0  0  0  0  0  0  0  0  0
    4.1715   -7.1061   37.5072 C   0  0  0  0  0  0  0  0  0  0  0  0
    3.2849   -7.2752   38.7112 C   0  0  0  0  0  0  0  0  0  0  0  0
    3.8471   -7.2341   39.9942 C   0  0  0  0  0  0  0  0  0  0  0  0
    3.0607   -7.4689   41.1239 C   0  0  0  0  0  0  0  0  0  0  0  0
    1.7037   -7.7498   40.9866 C   0  0  0  0  0  0  0  0  0  0  0  0
    1.1328   -7.7974   39.7203 C   0  0  0  0  0  0  0  0  0  0  0  0
    1.9195   -7.5709   38.5917 C   0  0  0  0  0  0  0  0  0  0  0  0
    2.4285   -4.9474   34.6994 H   0  0  0  0  0  0  0  0  0  0  0  0
    2.9742   -5.8311   33.3509 H   0  0  0  0  0  0  0  0  0  0  0  0
    1.7589   -3.5969   32.7699 H   0  0  0  0  0  0  0  0  0  0  0  0
    0.1453   -3.2189   32.2426 H   0  0  0  0  0  0  0  0  0  0  0  0
    1.2705   -2.9326   34.9225 H   0  0  0  0  0  0  0  0  0  0  0  0
   -0.1771   -2.2328   34.2431 H   0  0  0  0  0  0  0  0  0  0  0  0
   -1.4534   -4.2999   34.9036 H   0  0  0  0  0  0  0  0  0  0  0  0
   -2.0073   -4.7090   38.6432 H   0  0  0  0  0  0  0  0  0  0  0  0
   -2.6161   -3.0087   40.3000 H   0  0  0  0  0  0  0  0  0  0  0  0
   -1.9762   -1.0591   41.2565 H   0  0  0  0  0  0  0  0  0  0  0  0
    0.8019   -0.6632   39.1309 H   0  0  0  0  0  0  0  0  0  0  0  0
    1.3585   -2.3378   37.3912 H   0  0  0  0  0  0  0  0  0  0  0  0
   -1.1017   -5.0645   31.3142 H   0  0  0  0  0  0  0  0  0  0  0  0
   -1.3290   -8.3850   33.7938 H   0  0  0  0  0  0  0  0  0  0  0  0
    3.1234   -5.5384   36.5230 H   0  0  0  0  0  0  0  0  0  0  0  0
    4.5349   -8.0862   37.1816 H   0  0  0  0  0  0  0  0  0  0  0  0
    5.0293   -6.4703   37.7492 H   0  0  0  0  0  0  0  0  0  0  0  0
    4.9082   -7.0363   40.1246 H   0  0  0  0  0  0  0  0  0  0  0  0
    3.5096   -7.4471   42.1131 H   0  0  0  0  0  0  0  0  0  0  0  0
    1.0946   -7.9568   41.8617 H   0  0  0  0  0  0  0  0  0  0  0  0
    0.0852   -8.0598   39.6000 H   0  0  0  0  0  0  0  0  0  0  0  0
    1.4526   -7.6689   37.6146 H   0  0  0  0  0  0  0  0  0  0  0  0
  1  2  2  0
  2  3  1  0
  3  4  1  0
  4  5  1  0
  5  6  1  0
  6  7  1  0
  7  8  1  0
  8  9  1  0
  9 10  2  0
  9 11  2  0
  9 12  1  0
 12 13  2  0
 13 14  1  0
 14 15  2  0
 15 16  1  0
 15 17  1  0
 17 18  2  0
  5 19  2  0
 19 20  1  0
 20 21  2  0
 20 22  1  0
 22 23  1  0
 23 24  2  0
  2 25  1  0
 25 26  1  0
 26 27  1  0
 27 28  2  0
 28 29  1  0
 29 30  2  0
 30 31  1  0
 31 32  2  0
 23  4  1  0
 32 27  1  0
 18 12  1  0
  3 33  1  0
  3 34  1  0
  6 35  1  0
  6 36  1  0
  7 37  1  0
  7 38  1  0
  8 39  1  0
 13 40  1  0
 14 41  1  0
 16 42  1  0
 17 43  1  0
 18 44  1  0
 19 45  1  0
 22 46  1  0
 25 47  1  0
 26 48  1  0
 26 49  1  0
 28 50  1  0
 29 51  1  0
 30 52  1  0
 31 53  1  0
 32 54  1  0
M  END
>  <Energy>  (259) 
-50.865769343321084

>  <compound_id>  (259) 
4025

>  <target_id>  (259) 
1

>  <reference_id>  (259) 
140

>  <inspiration_ids>  (259) 
[140, 168]

>  <energy_score>  (259) 
1.0638838773244146

>  <distance_score>  (259) 
1.267466271543757

>  <path>  (259) 
/opt/xchem-fragalysis-2/maxwin/BulkDock/SCRATCH/505735/C4025-P140/C4025-P140.minimised.mol

>  <scratch_subdir>  (259) 
/opt/xchem-fragalysis-2/maxwin/BulkDock/SCRATCH/505735/C4025-P140

>  <fragmenstein_runtime>  (259) 
3.6386210918426514

>  <fragmenstein_outcome>  (259) 
too moved

>  <fragmenstein_mode>  (259) 
expansion

>  <fragmenstein_error>  (259) 


$$$$
C4025-P168
     RDKit          3D

 54 56  0  0  0  0  0  0  0  0999 V2000
    3.2694   -8.3051   34.5279 O   0  0  0  0  0  0  0  0  0  0  0  0
    3.0711   -7.2683   35.0256 C   0  0  0  0  0  0  0  0  0  0  0  0
    2.3779   -6.1144   34.2458 C   0  0  0  0  0  0  0  0  0  0  0  0
    1.0411   -6.3773   33.6779 N   0  0  0  0  0  0  0  0  0  0  0  0
    0.4478   -5.4625   32.8188 C   0  0  0  0  0  0  0  0  0  0  0  0
    0.7366   -3.9870   33.0170 C   0  0  0  0  0  0  0  0  0  0  0  0
    0.3204   -3.4279   34.4192 C   0  0  0  0  0  0  0  0  0  0  0  0
   -0.5853   -4.3217   35.1549 N   0  0  0  0  0  0  0  0  0  0  0  0
   -0.1560   -5.0690   36.6041 S   0  0  0  0  0  0  0  0  0  0  0  0
   -1.0687   -6.1673   36.8072 O   0  0  0  0  0  0  0  0  0  0  0  0
    1.2815   -5.2030   36.6223 O   0  0  0  0  0  0  0  0  0  0  0  0
   -0.5175   -3.8555   37.8103 C   0  0  0  0  0  0  0  0  0  0  0  0
   -1.6768   -3.0953   37.6828 C   0  0  0  0  0  0  0  0  0  0  0  0
   -1.9491   -2.1115   38.6234 C   0  0  0  0  0  0  0  0  0  0  0  0
   -1.0471   -1.8973   39.6625 C   0  0  0  0  0  0  0  0  0  0  0  0
   -1.2704   -0.9343   40.6029 O   0  0  0  0  0  0  0  0  0  0  0  0
    0.1135   -2.6552   39.7876 C   0  0  0  0  0  0  0  0  0  0  0  0
    0.3840   -3.6493   38.8573 C   0  0  0  0  0  0  0  0  0  0  0  0
   -0.5363   -5.8812   32.0091 C   0  0  0  0  0  0  0  0  0  0  0  0
   -1.0701   -7.2441   32.2208 C   0  0  0  0  0  0  0  0  0  0  0  0
   -1.6843   -7.8474   31.3493 O   0  0  0  0  0  0  0  0  0  0  0  0
   -0.8863   -7.6852   33.4982 N   0  0  0  0  0  0  0  0  0  0  0  0
    0.2166   -7.3459   34.2356 C   0  0  0  0  0  0  0  0  0  0  0  0
    0.4468   -7.9123   35.2936 O   0  0  0  0  0  0  0  0  0  0  0  0
    3.4692   -6.7347   36.4176 N   0  0  0  0  0  0  0  0  0  0  0  0
    4.1081   -7.3925   37.5189 C   0  0  0  0  0  0  0  0  0  0  0  0
    3.2133   -7.4611   38.7256 C   0  0  0  0  0  0  0  0  0  0  0  0
    3.7492   -7.2774   40.0061 C   0  0  0  0  0  0  0  0  0  0  0  0
    2.9425   -7.4127   41.1372 C   0  0  0  0  0  0  0  0  0  0  0  0
    1.5936   -7.7348   41.0028 C   0  0  0  0  0  0  0  0  0  0  0  0
    1.0492   -7.9245   39.7379 C   0  0  0  0  0  0  0  0  0  0  0  0
    1.8553   -7.7943   38.6089 C   0  0  0  0  0  0  0  0  0  0  0  0
    2.4237   -5.1609   34.7638 H   0  0  0  0  0  0  0  0  0  0  0  0
    3.0311   -5.9526   33.3767 H   0  0  0  0  0  0  0  0  0  0  0  0
    1.7946   -3.7689   32.8288 H   0  0  0  0  0  0  0  0  0  0  0  0
    0.1896   -3.4071   32.2610 H   0  0  0  0  0  0  0  0  0  0  0  0
    1.2188   -3.2130   35.0067 H   0  0  0  0  0  0  0  0  0  0  0  0
   -0.1847   -2.4646   34.2836 H   0  0  0  0  0  0  0  0  0  0  0  0
   -1.5359   -4.5119   34.8145 H   0  0  0  0  0  0  0  0  0  0  0  0
   -2.3539   -3.2482   36.8508 H   0  0  0  0  0  0  0  0  0  0  0  0
   -2.8504   -1.5143   38.5318 H   0  0  0  0  0  0  0  0  0  0  0  0
   -2.1610   -0.5694   40.4749 H   0  0  0  0  0  0  0  0  0  0  0  0
    0.7945   -2.4767   40.6153 H   0  0  0  0  0  0  0  0  0  0  0  0
    1.2793   -4.2582   38.9631 H   0  0  0  0  0  0  0  0  0  0  0  0
   -1.0492   -5.2354   31.3156 H   0  0  0  0  0  0  0  0  0  0  0  0
   -1.3105   -8.5574   33.7910 H   0  0  0  0  0  0  0  0  0  0  0  0
    3.0608   -5.8114   36.5576 H   0  0  0  0  0  0  0  0  0  0  0  0
    4.3970   -8.4026   37.2114 H   0  0  0  0  0  0  0  0  0  0  0  0
    5.0139   -6.8187   37.7401 H   0  0  0  0  0  0  0  0  0  0  0  0
    4.8035   -7.0458   40.1359 H   0  0  0  0  0  0  0  0  0  0  0  0
    3.3691   -7.2811   42.1280 H   0  0  0  0  0  0  0  0  0  0  0  0
    0.9702   -7.8606   41.8837 H   0  0  0  0  0  0  0  0  0  0  0  0
    0.0081   -8.2152   39.6243 H   0  0  0  0  0  0  0  0  0  0  0  0
    1.4133   -7.9904   37.6346 H   0  0  0  0  0  0  0  0  0  0  0  0
  1  2  2  0
  2  3  1  0
  3  4  1  0
  4  5  1  0
  5  6  1  0
  6  7  1  0
  7  8  1  0
  8  9  1  0
  9 10  2  0
  9 11  2  0
  9 12  1  0
 12 13  2  0
 13 14  1  0
 14 15  2  0
 15 16  1  0
 15 17  1  0
 17 18  2  0
  5 19  2  0
 19 20  1  0
 20 21  2  0
 20 22  1  0
 22 23  1  0
 23 24  2  0
  2 25  1  0
 25 26  1  0
 26 27  1  0
 27 28  2  0
 28 29  1  0
 29 30  2  0
 30 31  1  0
 31 32  2  0
 23  4  1  0
 32 27  1  0
 18 12  1  0
  3 33  1  0
  3 34  1  0
  6 35  1  0
  6 36  1  0
  7 37  1  0
  7 38  1  0
  8 39  1  0
 13 40  1  0
 14 41  1  0
 16 42  1  0
 17 43  1  0
 18 44  1  0
 19 45  1  0
 22 46  1  0
 25 47  1  0
 26 48  1  0
 26 49  1  0
 28 50  1  0
 29 51  1  0
 30 52  1  0
 31 53  1  0
 32 54  1  0
M  END
>  <Energy>  (260) 
-52.955899607990318

>  <compound_id>  (260) 
4025

>  <target_id>  (260) 
1

>  <reference_id>  (260) 
168

>  <inspiration_ids>  (260) 
[140, 168]

>  <energy_score>  (260) 
-1.0262463873463332

>  <distance_score>  (260) 
1.2166078579080886

>  <path>  (260) 
/opt/xchem-fragalysis-2/maxwin/BulkDock/SCRATCH/505735/C4025-P168/C4025-P168.minimised.mol

>  <scratch_subdir>  (260) 
/opt/xchem-fragalysis-2/maxwin/BulkDock/SCRATCH/505735/C4025-P168

>  <fragmenstein_runtime>  (260) 
2.8040874004364014

>  <fragmenstein_outcome>  (260) 
too moved

>  <fragmenstein_mode>  (260) 
expansion

>  <fragmenstein_error>  (260) 


$$$$
C4025-P140
     RDKit          3D

 54 56  0  0  0  0  0  0  0  0999 V2000
    3.6157   -5.1973   33.8687 O   0  0  0  0  0  0  0  0  0  0  0  0
    2.7559   -5.0790   34.6532 C   0  0  0  0  0  0  0  0  0  0  0  0
    1.4067   -4.4158   34.2848 C   0  0  0  0  0  0  0  0  0  0  0  0
    0.7074   -5.3072   33.3627 N   0  0  0  0  0  0  0  0  0  0  0  0
    0.8192   -5.1918   31.9690 C   0  0  0  0  0  0  0  0  0  0  0  0
    1.4651   -3.9744   31.2566 C   0  0  0  0  0  0  0  0  0  0  0  0
    2.9214   -3.4272   31.3775 C   0  0  0  0  0  0  0  0  0  0  0  0
    3.9704   -4.4640   31.1917 N   0  0  0  0  0  0  0  0  0  0  0  0
    5.5249   -3.9234   30.6540 S   0  0  0  0  0  0  0  0  0  0  0  0
    5.3241   -3.0480   29.5209 O   0  0  0  0  0  0  0  0  0  0  0  0
    6.2229   -3.4883   31.8431 O   0  0  0  0  0  0  0  0  0  0  0  0
    6.3561   -5.4176   30.0333 C   0  0  0  0  0  0  0  0  0  0  0  0
    5.9335   -5.9452   28.8037 C   0  0  0  0  0  0  0  0  0  0  0  0
    6.4801   -7.1164   28.3118 C   0  0  0  0  0  0  0  0  0  0  0  0
    7.4241   -7.7638   29.0840 C   0  0  0  0  0  0  0  0  0  0  0  0
    7.7880   -9.0079   28.7051 O   0  0  0  0  0  0  0  0  0  0  0  0
    7.9359   -7.2145   30.2560 C   0  0  0  0  0  0  0  0  0  0  0  0
    7.4020   -6.0213   30.7398 C   0  0  0  0  0  0  0  0  0  0  0  0
    0.1489   -6.0785   31.2052 C   0  0  0  0  0  0  0  0  0  0  0  0
   -0.6955   -7.1351   31.7961 C   0  0  0  0  0  0  0  0  0  0  0  0
   -1.3857   -7.8693   31.0953 O   0  0  0  0  0  0  0  0  0  0  0  0
   -0.6701   -7.2072   33.1518 N   0  0  0  0  0  0  0  0  0  0  0  0
   -0.0474   -6.3193   33.9813 C   0  0  0  0  0  0  0  0  0  0  0  0
   -0.1652   -6.4473   35.1998 O   0  0  0  0  0  0  0  0  0  0  0  0
    2.6687   -5.5525   36.1280 N   0  0  0  0  0  0  0  0  0  0  0  0
    3.5778   -6.3480   36.9089 C   0  0  0  0  0  0  0  0  0  0  0  0
    2.9833   -6.8511   38.1973 C   0  0  0  0  0  0  0  0  0  0  0  0
    3.7876   -6.9534   39.3437 C   0  0  0  0  0  0  0  0  0  0  0  0
    3.2740   -7.4708   40.5359 C   0  0  0  0  0  0  0  0  0  0  0  0
    1.9508   -7.8961   40.5982 C   0  0  0  0  0  0  0  0  0  0  0  0
    1.1438   -7.8086   39.4686 C   0  0  0  0  0  0  0  0  0  0  0  0
    1.6576   -7.3033   38.2729 C   0  0  0  0  0  0  0  0  0  0  0  0
    1.5876   -3.4357   33.8405 H   0  0  0  0  0  0  0  0  0  0  0  0
    0.7884   -4.2312   35.1689 H   0  0  0  0  0  0  0  0  0  0  0  0
    1.3259   -4.1300   30.1757 H   0  0  0  0  0  0  0  0  0  0  0  0
    0.8097   -3.1223   31.4914 H   0  0  0  0  0  0  0  0  0  0  0  0
    3.0728   -2.9441   32.3469 H   0  0  0  0  0  0  0  0  0  0  0  0
    3.0334   -2.6501   30.6130 H   0  0  0  0  0  0  0  0  0  0  0  0
    4.1365   -4.8297   32.1496 H   0  0  0  0  0  0  0  0  0  0  0  0
    5.1601   -5.4339   28.2320 H   0  0  0  0  0  0  0  0  0  0  0  0
    6.1463   -7.5374   27.3689 H   0  0  0  0  0  0  0  0  0  0  0  0
    7.4278   -9.6166   29.3885 H   0  0  0  0  0  0  0  0  0  0  0  0
    8.7198   -7.7152   30.8134 H   0  0  0  0  0  0  0  0  0  0  0  0
    7.7663   -5.5930   31.6700 H   0  0  0  0  0  0  0  0  0  0  0  0
    0.1201   -6.0154   30.1238 H   0  0  0  0  0  0  0  0  0  0  0  0
   -1.2251   -7.9289   33.5943 H   0  0  0  0  0  0  0  0  0  0  0  0
    1.8082   -5.2092   36.5442 H   0  0  0  0  0  0  0  0  0  0  0  0
    4.4511   -5.7155   37.1018 H   0  0  0  0  0  0  0  0  0  0  0  0
    3.9090   -7.1896   36.2911 H   0  0  0  0  0  0  0  0  0  0  0  0
    4.8279   -6.6359   39.3166 H   0  0  0  0  0  0  0  0  0  0  0  0
    3.9092   -7.5499   41.4142 H   0  0  0  0  0  0  0  0  0  0  0  0
    1.5511   -8.3178   41.5166 H   0  0  0  0  0  0  0  0  0  0  0  0
    0.1218   -8.1767   39.5096 H   0  0  0  0  0  0  0  0  0  0  0  0
    1.0106   -7.2941   37.3988 H   0  0  0  0  0  0  0  0  0  0  0  0
  1  2  2  0
  2  3  1  0
  3  4  1  0
  4  5  1  0
  5  6  1  0
  6  7  1  0
  7  8  1  0
  8  9  1  0
  9 10  2  0
  9 11  2  0
  9 12  1  0
 12 13  2  0
 13 14  1  0
 14 15  2  0
 15 16  1  0
 15 17  1  0
 17 18  2  0
  5 19  2  0
 19 20  1  0
 20 21  2  0
 20 22  1  0
 22 23  1  0
 23 24  2  0
  2 25  1  0
 25 26  1  0
 26 27  1  0
 27 28  2  0
 28 29  1  0
 29 30  2  0
 30 31  1  0
 31 32  2  0
 23  4  1  0
 32 27  1  0
 18 12  1  0
  3 33  1  0
  3 34  1  0
  6 35  1  0
  6 36  1  0
  7 37  1  0
  7 38  1  0
  8 39  1  0
 13 40  1  0
 14 41  1  0
 16 42  1  0
 17 43  1  0
 18 44  1  0
 19 45  1  0
 22 46  1  0
 25 47  1  0
 26 48  1  0
 26 49  1  0
 28 50  1  0
 29 51  1  0
 30 52  1  0
 31 53  1  0
 32 54  1  0
M  END
>  <Energy>  (261) 
-76.182181790838612

>  <compound_id>  (261) 
4025

>  <target_id>  (261) 
1

>  <reference_id>  (261) 
140

>  <inspiration_ids>  (261) 
[140, 175]

>  <energy_score>  (261) 
-21.16723926085281

>  <distance_score>  (261) 
2.1805107646330724

>  <path>  (261) 
/opt/xchem-fragalysis-2/maxwin/BulkDock/SCRATCH/505735/C4025-P140/C4025-P140.minimised.mol

>  <scratch_subdir>  (261) 
/opt/xchem-fragalysis-2/maxwin/BulkDock/SCRATCH/505735/C4025-P140

>  <fragmenstein_runtime>  (261) 
13.93205213546753

>  <fragmenstein_outcome>  (261) 
too moved

>  <fragmenstein_mode>  (261) 
expansion

>  <fragmenstein_error>  (261) 


$$$$
C4025-P175
     RDKit          3D

 54 56  0  0  0  0  0  0  0  0999 V2000
    3.7213   -5.4059   33.9654 O   0  0  0  0  0  0  0  0  0  0  0  0
    2.8227   -5.3290   34.7096 C   0  0  0  0  0  0  0  0  0  0  0  0
    1.5031   -4.6168   34.3255 C   0  0  0  0  0  0  0  0  0  0  0  0
    0.7760   -5.4965   33.4167 N   0  0  0  0  0  0  0  0  0  0  0  0
    0.9031   -5.4126   32.0240 C   0  0  0  0  0  0  0  0  0  0  0  0
    1.5952   -4.2329   31.2963 C   0  0  0  0  0  0  0  0  0  0  0  0
    3.0654   -3.7306   31.4352 C   0  0  0  0  0  0  0  0  0  0  0  0
    4.0835   -4.8048   31.2935 N   0  0  0  0  0  0  0  0  0  0  0  0
    5.6726   -4.3158   30.8254 S   0  0  0  0  0  0  0  0  0  0  0  0
    5.5472   -3.3896   29.7216 O   0  0  0  0  0  0  0  0  0  0  0  0
    6.3556   -3.9581   32.0481 O   0  0  0  0  0  0  0  0  0  0  0  0
    6.4544   -5.8155   30.1647 C   0  0  0  0  0  0  0  0  0  0  0  0
    6.0173   -6.2881   28.9174 C   0  0  0  0  0  0  0  0  0  0  0  0
    6.5961   -7.4036   28.3349 C   0  0  0  0  0  0  0  0  0  0  0  0
    7.6073   -8.0468   29.0271 C   0  0  0  0  0  0  0  0  0  0  0  0
    8.1854   -9.1562   28.5169 O   0  0  0  0  0  0  0  0  0  0  0  0
    8.0699   -7.5920   30.2594 C   0  0  0  0  0  0  0  0  0  0  0  0
    7.5019   -6.4550   30.8345 C   0  0  0  0  0  0  0  0  0  0  0  0
    0.2096   -6.2922   31.2741 C   0  0  0  0  0  0  0  0  0  0  0  0
   -0.6573   -7.3231   31.8797 C   0  0  0  0  0  0  0  0  0  0  0  0
   -1.3752   -8.0336   31.1824 O   0  0  0  0  0  0  0  0  0  0  0  0
   -0.6156   -7.3908   33.2362 N   0  0  0  0  0  0  0  0  0  0  0  0
   -0.0140   -6.4736   34.0507 C   0  0  0  0  0  0  0  0  0  0  0  0
   -0.1760   -6.5336   35.2694 O   0  0  0  0  0  0  0  0  0  0  0  0
    2.6326   -5.9405   36.1211 N   0  0  0  0  0  0  0  0  0  0  0  0
    3.5420   -6.6903   36.9437 C   0  0  0  0  0  0  0  0  0  0  0  0
    2.9299   -7.1225   38.2484 C   0  0  0  0  0  0  0  0  0  0  0  0
    3.6814   -7.0651   39.4316 C   0  0  0  0  0  0  0  0  0  0  0  0
    3.1357   -7.4919   40.6451 C   0  0  0  0  0  0  0  0  0  0  0  0
    1.8341   -7.9842   40.6912 C   0  0  0  0  0  0  0  0  0  0  0  0
    1.0826   -8.0606   39.5228 C   0  0  0  0  0  0  0  0  0  0  0  0
    1.6288   -7.6441   38.3079 C   0  0  0  0  0  0  0  0  0  0  0  0
    1.7218   -3.6510   33.8677 H   0  0  0  0  0  0  0  0  0  0  0  0
    0.8959   -4.3912   35.2081 H   0  0  0  0  0  0  0  0  0  0  0  0
    1.4713   -4.4095   30.2168 H   0  0  0  0  0  0  0  0  0  0  0  0
    0.9627   -3.3559   31.4998 H   0  0  0  0  0  0  0  0  0  0  0  0
    3.2154   -3.2264   32.3937 H   0  0  0  0  0  0  0  0  0  0  0  0
    3.2156   -2.9778   30.6531 H   0  0  0  0  0  0  0  0  0  0  0  0
    4.2031   -5.1766   32.2570 H   0  0  0  0  0  0  0  0  0  0  0  0
    5.2264   -5.7575   28.3884 H   0  0  0  0  0  0  0  0  0  0  0  0
    6.2563   -7.7477   27.3634 H   0  0  0  0  0  0  0  0  0  0  0  0
    7.8922   -9.2818   27.5987 H   0  0  0  0  0  0  0  0  0  0  0  0
    8.8742   -8.1194   30.7658 H   0  0  0  0  0  0  0  0  0  0  0  0
    7.8647   -6.0837   31.7894 H   0  0  0  0  0  0  0  0  0  0  0  0
    0.1837   -6.2467   30.1924 H   0  0  0  0  0  0  0  0  0  0  0  0
   -1.1819   -8.0984   33.6920 H   0  0  0  0  0  0  0  0  0  0  0  0
    1.7615   -5.6031   36.5229 H   0  0  0  0  0  0  0  0  0  0  0  0
    4.4161   -6.0506   37.1072 H   0  0  0  0  0  0  0  0  0  0  0  0
    3.8756   -7.5629   36.3720 H   0  0  0  0  0  0  0  0  0  0  0  0
    4.7007   -6.6846   39.4187 H   0  0  0  0  0  0  0  0  0  0  0  0
    3.7272   -7.4373   41.5553 H   0  0  0  0  0  0  0  0  0  0  0  0
    1.4077   -8.3167   41.6335 H   0  0  0  0  0  0  0  0  0  0  0  0
    0.0756   -8.4694   39.5458 H   0  0  0  0  0  0  0  0  0  0  0  0
    1.0246   -7.7508   37.4075 H   0  0  0  0  0  0  0  0  0  0  0  0
  1  2  2  0
  2  3  1  0
  3  4  1  0
  4  5  1  0
  5  6  1  0
  6  7  1  0
  7  8  1  0
  8  9  1  0
  9 10  2  0
  9 11  2  0
  9 12  1  0
 12 13  2  0
 13 14  1  0
 14 15  2  0
 15 16  1  0
 15 17  1  0
 17 18  2  0
  5 19  2  0
 19 20  1  0
 20 21  2  0
 20 22  1  0
 22 23  1  0
 23 24  2  0
  2 25  1  0
 25 26  1  0
 26 27  1  0
 27 28  2  0
 28 29  1  0
 29 30  2  0
 30 31  1  0
 31 32  2  0
 23  4  1  0
 32 27  1  0
 18 12  1  0
  3 33  1  0
  3 34  1  0
  6 35  1  0
  6 36  1  0
  7 37  1  0
  7 38  1  0
  8 39  1  0
 13 40  1  0
 14 41  1  0
 16 42  1  0
 17 43  1  0
 18 44  1  0
 19 45  1  0
 22 46  1  0
 25 47  1  0
 26 48  1  0
 26 49  1  0
 28 50  1  0
 29 51  1  0
 30 52  1  0
 31 53  1  0
 32 54  1  0
M  END
>  <Energy>  (262) 
-81.368887358202414

>  <compound_id>  (262) 
4025

>  <target_id>  (262) 
1

>  <reference_id>  (262) 
175

>  <inspiration_ids>  (262) 
[140, 175]

>  <energy_score>  (262) 
-26.353944828216996

>  <distance_score>  (262) 
2.056448337742273

>  <path>  (262) 
/opt/xchem-fragalysis-2/maxwin/BulkDock/SCRATCH/505735/C4025-P175/C4025-P175.minimised.mol

>  <scratch_subdir>  (262) 
/opt/xchem-fragalysis-2/maxwin/BulkDock/SCRATCH/505735/C4025-P175

>  <fragmenstein_runtime>  (262) 
14.29617714881897

>  <fragmenstein_outcome>  (262) 
too moved

>  <fragmenstein_mode>  (262) 
expansion

>  <fragmenstein_error>  (262) 


$$$$
C4026-P140
     RDKit          3D

 55 57  0  0  0  0  0  0  0  0999 V2000
    2.9590   -5.1114   33.4253 O   0  0  0  0  0  0  0  0  0  0  0  0
    2.1239   -5.0703   34.2438 C   0  0  0  0  0  0  0  0  0  0  0  0
    0.7198   -4.4903   33.9348 C   0  0  0  0  0  0  0  0  0  0  0  0
   -0.0259   -5.5018   33.1827 N   0  0  0  0  0  0  0  0  0  0  0  0
   -0.0708   -5.5277   31.7775 C   0  0  0  0  0  0  0  0  0  0  0  0
    0.4377   -4.3451   30.9338 C   0  0  0  0  0  0  0  0  0  0  0  0
    0.4658   -4.5089   29.3645 C   0  0  0  0  0  0  0  0  0  0  0  0
    1.5012   -5.4853   29.0406 N   0  0  0  0  0  0  0  0  0  0  0  0
    2.5933   -5.3558   27.8142 S   0  0  0  0  0  0  0  0  0  0  0  0
    3.3390   -6.5944   27.8785 O   0  0  0  0  0  0  0  0  0  0  0  0
    1.9910   -4.9037   26.5947 O   0  0  0  0  0  0  0  0  0  0  0  0
    3.5661   -4.1238   28.3258 N   0  0  0  0  0  0  0  0  0  0  0  0
    2.9679   -2.7869   28.5493 C   0  0  0  0  0  0  0  0  0  0  0  0
    4.0098   -1.7737   28.1198 C   0  0  0  0  0  0  0  0  0  0  0  0
    5.2501   -2.5758   27.8149 C   0  0  0  0  0  0  0  0  0  0  0  0
    4.6972   -3.9104   27.3859 C   0  0  0  0  0  0  0  0  0  0  0  0
   -0.6083   -6.5976   31.1793 C   0  0  0  0  0  0  0  0  0  0  0  0
   -1.1988   -7.6836   31.9524 C   0  0  0  0  0  0  0  0  0  0  0  0
   -1.6974   -8.6249   31.3524 O   0  0  0  0  0  0  0  0  0  0  0  0
   -1.1670   -7.5500   33.2992 N   0  0  0  0  0  0  0  0  0  0  0  0
   -0.5907   -6.5142   33.9723 C   0  0  0  0  0  0  0  0  0  0  0  0
   -0.5674   -6.5233   35.2026 O   0  0  0  0  0  0  0  0  0  0  0  0
    2.1259   -5.5838   35.7116 N   0  0  0  0  0  0  0  0  0  0  0  0
    3.1198   -6.3355   36.4399 C   0  0  0  0  0  0  0  0  0  0  0  0
    2.7041   -6.7706   37.8240 C   0  0  0  0  0  0  0  0  0  0  0  0
    3.6449   -6.7858   38.8686 C   0  0  0  0  0  0  0  0  0  0  0  0
    3.3051   -7.2626   40.1395 C   0  0  0  0  0  0  0  0  0  0  0  0
    2.0208   -7.7360   40.3856 C   0  0  0  0  0  0  0  0  0  0  0  0
    1.0803   -7.7357   39.3611 C   0  0  0  0  0  0  0  0  0  0  0  0
    1.4205   -7.2688   38.0885 C   0  0  0  0  0  0  0  0  0  0  0  0
    0.1854   -4.2281   34.8539 H   0  0  0  0  0  0  0  0  0  0  0  0
    0.8333   -3.5616   33.3688 H   0  0  0  0  0  0  0  0  0  0  0  0
   -0.2033   -3.4831   31.1585 H   0  0  0  0  0  0  0  0  0  0  0  0
    1.4547   -4.0914   31.2564 H   0  0  0  0  0  0  0  0  0  0  0  0
    0.6234   -3.5355   28.9128 H   0  0  0  0  0  0  0  0  0  0  0  0
   -0.5183   -4.8275   29.0261 H   0  0  0  0  0  0  0  0  0  0  0  0
    1.9933   -5.8571   29.8519 H   0  0  0  0  0  0  0  0  0  0  0  0
    2.0766   -2.6158   27.9461 H   0  0  0  0  0  0  0  0  0  0  0  0
    2.7298   -2.6651   29.6096 H   0  0  0  0  0  0  0  0  0  0  0  0
    3.6735   -1.2436   27.2214 H   0  0  0  0  0  0  0  0  0  0  0  0
    4.1890   -1.0144   28.8877 H   0  0  0  0  0  0  0  0  0  0  0  0
    5.8795   -2.1121   27.0499 H   0  0  0  0  0  0  0  0  0  0  0  0
    5.8517   -2.6901   28.7249 H   0  0  0  0  0  0  0  0  0  0  0  0
    5.4481   -4.6994   27.4872 H   0  0  0  0  0  0  0  0  0  0  0  0
    4.3583   -3.8586   26.3447 H   0  0  0  0  0  0  0  0  0  0  0  0
   -0.6812   -6.7318   30.1090 H   0  0  0  0  0  0  0  0  0  0  0  0
   -1.5112   -8.3252   33.8572 H   0  0  0  0  0  0  0  0  0  0  0  0
    1.2009   -5.4582   36.1172 H   0  0  0  0  0  0  0  0  0  0  0  0
    3.3728   -7.2160   35.8387 H   0  0  0  0  0  0  0  0  0  0  0  0
    4.0137   -5.7034   36.4800 H   0  0  0  0  0  0  0  0  0  0  0  0
    4.6603   -6.4336   38.6978 H   0  0  0  0  0  0  0  0  0  0  0  0
    4.0471   -7.2727   40.9335 H   0  0  0  0  0  0  0  0  0  0  0  0
    1.7558   -8.1263   41.3645 H   0  0  0  0  0  0  0  0  0  0  0  0
    0.0894   -8.1441   39.5439 H   0  0  0  0  0  0  0  0  0  0  0  0
    0.6718   -7.3368   37.3037 H   0  0  0  0  0  0  0  0  0  0  0  0
  1  2  2  0
  2  3  1  0
  3  4  1  0
  4  5  1  0
  5  6  1  0
  6  7  1  0
  7  8  1  0
  8  9  1  0
  9 10  2  0
  9 11  2  0
  9 12  1  0
 12 13  1  0
 13 14  1  0
 14 15  1  0
 15 16  1  0
  5 17  2  0
 17 18  1  0
 18 19  2  0
 18 20  1  0
 20 21  1  0
 21 22  2  0
  2 23  1  0
 23 24  1  0
 24 25  1  0
 25 26  2  0
 26 27  1  0
 27 28  2  0
 28 29  1  0
 29 30  2  0
 21  4  1  0
 30 25  1  0
 16 12  1  0
  3 31  1  0
  3 32  1  0
  6 33  1  0
  6 34  1  0
  7 35  1  0
  7 36  1  0
  8 37  1  0
 13 38  1  0
 13 39  1  0
 14 40  1  0
 14 41  1  0
 15 42  1  0
 15 43  1  0
 16 44  1  0
 16 45  1  0
 17 46  1  0
 20 47  1  0
 23 48  1  0
 24 49  1  0
 24 50  1  0
 26 51  1  0
 27 52  1  0
 28 53  1  0
 29 54  1  0
 30 55  1  0
M  END
>  <Energy>  (263) 
-208.33105728597056

>  <compound_id>  (263) 
4026

>  <target_id>  (263) 
1

>  <reference_id>  (263) 
140

>  <inspiration_ids>  (263) 
[140, 177]

>  <energy_score>  (263) 
-189.56899566951543

>  <distance_score>  (263) 
2.20833015782828

>  <path>  (263) 
/opt/xchem-fragalysis-2/maxwin/BulkDock/SCRATCH/505735/C4026-P140/C4026-P140.minimised.mol

>  <scratch_subdir>  (263) 
/opt/xchem-fragalysis-2/maxwin/BulkDock/SCRATCH/505735/C4026-P140

>  <fragmenstein_runtime>  (263) 
11.401183366775513

>  <fragmenstein_outcome>  (263) 
too moved

>  <fragmenstein_mode>  (263) 
expansion

>  <fragmenstein_error>  (263) 


$$$$
C4026-P177
     RDKit          3D

 55 57  0  0  0  0  0  0  0  0999 V2000
    2.8580   -7.0382   33.5516 O   0  0  0  0  0  0  0  0  0  0  0  0
    2.4520   -6.0941   34.1136 C   0  0  0  0  0  0  0  0  0  0  0  0
    1.4301   -5.1131   33.4295 C   0  0  0  0  0  0  0  0  0  0  0  0
    0.3992   -5.8991   32.7526 N   0  0  0  0  0  0  0  0  0  0  0  0
    0.2159   -5.9735   31.3537 C   0  0  0  0  0  0  0  0  0  0  0  0
    0.9518   -5.1219   30.3124 C   0  0  0  0  0  0  0  0  0  0  0  0
    0.9682   -5.6029   28.7841 C   0  0  0  0  0  0  0  0  0  0  0  0
   -0.1440   -5.1341   27.9812 N   0  0  0  0  0  0  0  0  0  0  0  0
   -0.2202   -3.5654   27.4683 S   0  0  0  0  0  0  0  0  0  0  0  0
   -0.7811   -2.7792   28.5395 O   0  0  0  0  0  0  0  0  0  0  0  0
   -0.7870   -3.6920   26.1523 O   0  0  0  0  0  0  0  0  0  0  0  0
    1.3560   -3.1526   27.3071 N   0  0  0  0  0  0  0  0  0  0  0  0
    2.1250   -2.4743   28.3438 C   0  0  0  0  0  0  0  0  0  0  0  0
    3.5599   -2.8494   28.0041 C   0  0  0  0  0  0  0  0  0  0  0  0
    3.5370   -2.8450   26.4837 C   0  0  0  0  0  0  0  0  0  0  0  0
    2.1976   -3.4951   26.1611 C   0  0  0  0  0  0  0  0  0  0  0  0
   -0.6474   -6.8719   30.8823 C   0  0  0  0  0  0  0  0  0  0  0  0
   -1.3188   -7.7916   31.7683 C   0  0  0  0  0  0  0  0  0  0  0  0
   -1.8941   -8.7337   31.2534 O   0  0  0  0  0  0  0  0  0  0  0  0
   -1.2442   -7.5445   33.0906 N   0  0  0  0  0  0  0  0  0  0  0  0
   -0.3918   -6.6456   33.6503 C   0  0  0  0  0  0  0  0  0  0  0  0
   -0.3150   -6.5735   34.8764 O   0  0  0  0  0  0  0  0  0  0  0  0
    2.8166   -5.5198   35.5146 N   0  0  0  0  0  0  0  0  0  0  0  0
    3.6835   -6.0426   36.5465 C   0  0  0  0  0  0  0  0  0  0  0  0
    3.0130   -6.6321   37.7665 C   0  0  0  0  0  0  0  0  0  0  0  0
    3.7989   -6.8976   38.9058 C   0  0  0  0  0  0  0  0  0  0  0  0
    3.2522   -7.5025   40.0424 C   0  0  0  0  0  0  0  0  0  0  0  0
    1.9089   -7.8585   40.0585 C   0  0  0  0  0  0  0  0  0  0  0  0
    1.1180   -7.6048   38.9414 C   0  0  0  0  0  0  0  0  0  0  0  0
    1.6638   -7.0007   37.8031 C   0  0  0  0  0  0  0  0  0  0  0  0
    1.9785   -4.4766   32.7313 H   0  0  0  0  0  0  0  0  0  0  0  0
    0.9430   -4.4730   34.1724 H   0  0  0  0  0  0  0  0  0  0  0  0
    2.0035   -5.0743   30.6150 H   0  0  0  0  0  0  0  0  0  0  0  0
    0.5481   -4.1082   30.3845 H   0  0  0  0  0  0  0  0  0  0  0  0
    0.9217   -6.6894   28.7025 H   0  0  0  0  0  0  0  0  0  0  0  0
    1.9282   -5.3455   28.3334 H   0  0  0  0  0  0  0  0  0  0  0  0
   -0.4895   -5.7561   27.2533 H   0  0  0  0  0  0  0  0  0  0  0  0
    1.8774   -2.7752   29.3591 H   0  0  0  0  0  0  0  0  0  0  0  0
    1.9756   -1.3926   28.2533 H   0  0  0  0  0  0  0  0  0  0  0  0
    4.2846   -2.1420   28.4164 H   0  0  0  0  0  0  0  0  0  0  0  0
    3.8017   -3.8507   28.3791 H   0  0  0  0  0  0  0  0  0  0  0  0
    3.5561   -1.8139   26.1101 H   0  0  0  0  0  0  0  0  0  0  0  0
    4.3810   -3.3828   26.0427 H   0  0  0  0  0  0  0  0  0  0  0  0
    2.3408   -4.5758   26.1193 H   0  0  0  0  0  0  0  0  0  0  0  0
    1.7928   -3.1197   25.2183 H   0  0  0  0  0  0  0  0  0  0  0  0
   -0.8574   -7.0359   29.8345 H   0  0  0  0  0  0  0  0  0  0  0  0
   -1.6423   -8.2326   33.7169 H   0  0  0  0  0  0  0  0  0  0  0  0
    2.3339   -4.6404   35.6563 H   0  0  0  0  0  0  0  0  0  0  0  0
    4.3055   -6.8173   36.0848 H   0  0  0  0  0  0  0  0  0  0  0  0
    4.3272   -5.2105   36.8519 H   0  0  0  0  0  0  0  0  0  0  0  0
    4.8572   -6.6435   38.9100 H   0  0  0  0  0  0  0  0  0  0  0  0
    3.8780   -7.7084   40.9065 H   0  0  0  0  0  0  0  0  0  0  0  0
    1.4807   -8.3530   40.9263 H   0  0  0  0  0  0  0  0  0  0  0  0
    0.0763   -7.9088   38.9459 H   0  0  0  0  0  0  0  0  0  0  0  0
    1.0201   -6.8447   36.9427 H   0  0  0  0  0  0  0  0  0  0  0  0
  1  2  2  0
  2  3  1  0
  3  4  1  0
  4  5  1  0
  5  6  1  0
  6  7  1  0
  7  8  1  0
  8  9  1  0
  9 10  2  0
  9 11  2  0
  9 12  1  0
 12 13  1  0
 13 14  1  0
 14 15  1  0
 15 16  1  0
  5 17  2  0
 17 18  1  0
 18 19  2  0
 18 20  1  0
 20 21  1  0
 21 22  2  0
  2 23  1  0
 23 24  1  0
 24 25  1  0
 25 26  2  0
 26 27  1  0
 27 28  2  0
 28 29  1  0
 29 30  2  0
 21  4  1  0
 30 25  1  0
 16 12  1  0
  3 31  1  0
  3 32  1  0
  6 33  1  0
  6 34  1  0
  7 35  1  0
  7 36  1  0
  8 37  1  0
 13 38  1  0
 13 39  1  0
 14 40  1  0
 14 41  1  0
 15 42  1  0
 15 43  1  0
 16 44  1  0
 16 45  1  0
 17 46  1  0
 20 47  1  0
 23 48  1  0
 24 49  1  0
 24 50  1  0
 26 51  1  0
 27 52  1  0
 28 53  1  0
 29 54  1  0
 30 55  1  0
M  END
>  <Energy>  (264) 
-197.80035269872263

>  <compound_id>  (264) 
4026

>  <target_id>  (264) 
1

>  <reference_id>  (264) 
177

>  <inspiration_ids>  (264) 
[140, 177]

>  <energy_score>  (264) 
-179.03829108226878

>  <distance_score>  (264) 
1.549492041229335

>  <path>  (264) 
/opt/xchem-fragalysis-2/maxwin/BulkDock/SCRATCH/505735/C4026-P177/C4026-P177.minimised.mol

>  <scratch_subdir>  (264) 
/opt/xchem-fragalysis-2/maxwin/BulkDock/SCRATCH/505735/C4026-P177

>  <fragmenstein_runtime>  (264) 
8.390885591506958

>  <fragmenstein_outcome>  (264) 
too moved

>  <fragmenstein_mode>  (264) 
expansion

>  <fragmenstein_error>  (264) 


$$$$
C4027-P140
     RDKit          3D

 53 55  0  0  0  0  0  0  0  0999 V2000
    3.3535   -4.0961   31.1528 C   0  0  0  0  0  0  0  0  0  0  0  0
    2.6273   -3.5708   30.0308 N   0  0  0  0  0  0  0  0  0  0  0  0
    1.7881   -4.2638   29.2163 C   0  0  0  0  0  0  0  0  0  0  0  0
    1.0229   -3.3092   28.5980 C   0  0  0  0  0  0  0  0  0  0  0  0
    1.5428   -2.0673   29.0396 C   0  0  0  0  0  0  0  0  0  0  0  0
    0.4759   -0.6828   29.1662 S   0  0  0  0  0  0  0  0  0  0  0  0
    0.0180   -0.3499   27.8436 O   0  0  0  0  0  0  0  0  0  0  0  0
    1.0995    0.2734   30.0540 O   0  0  0  0  0  0  0  0  0  0  0  0
   -0.8474   -1.3638   30.0289 N   0  0  0  0  0  0  0  0  0  0  0  0
   -0.4700   -1.8902   31.3766 C   0  0  0  0  0  0  0  0  0  0  0  0
   -1.3052   -3.1329   31.7869 C   0  0  0  0  0  0  0  0  0  0  0  0
   -0.7283   -4.5075   32.2771 C   0  0  0  0  0  0  0  0  0  0  0  0
   -0.6952   -5.5304   31.4043 C   0  0  0  0  0  0  0  0  0  0  0  0
   -0.9051   -6.9188   31.8685 C   0  0  0  0  0  0  0  0  0  0  0  0
   -1.2088   -7.8063   31.0770 O   0  0  0  0  0  0  0  0  0  0  0  0
   -0.8511   -7.1111   33.2103 N   0  0  0  0  0  0  0  0  0  0  0  0
   -0.7582   -6.1173   34.1386 C   0  0  0  0  0  0  0  0  0  0  0  0
   -0.7977   -6.4025   35.3350 O   0  0  0  0  0  0  0  0  0  0  0  0
   -0.6378   -4.8126   33.6438 N   0  0  0  0  0  0  0  0  0  0  0  0
   -0.2910   -3.8043   34.6475 C   0  0  0  0  0  0  0  0  0  0  0  0
    1.2324   -3.9582   34.9262 C   0  0  0  0  0  0  0  0  0  0  0  0
    2.0267   -3.5679   34.1609 O   0  0  0  0  0  0  0  0  0  0  0  0
    1.4156   -4.7476   36.2542 N   0  0  0  0  0  0  0  0  0  0  0  0
    2.6054   -5.2993   36.8610 C   0  0  0  0  0  0  0  0  0  0  0  0
    2.3810   -6.2006   38.0539 C   0  0  0  0  0  0  0  0  0  0  0  0
    3.4051   -6.3548   39.0078 C   0  0  0  0  0  0  0  0  0  0  0  0
    3.2443   -7.1934   40.1166 C   0  0  0  0  0  0  0  0  0  0  0  0
    2.0572   -7.8949   40.2890 C   0  0  0  0  0  0  0  0  0  0  0  0
    1.0429   -7.7690   39.3458 C   0  0  0  0  0  0  0  0  0  0  0  0
    1.2100   -6.9494   38.2265 C   0  0  0  0  0  0  0  0  0  0  0  0
    2.6212   -2.2479   29.8231 N   0  0  0  0  0  0  0  0  0  0  0  0
    3.4203   -3.3312   31.9302 H   0  0  0  0  0  0  0  0  0  0  0  0
    2.8285   -4.9703   31.5442 H   0  0  0  0  0  0  0  0  0  0  0  0
    4.3558   -4.3569   30.8070 H   0  0  0  0  0  0  0  0  0  0  0  0
    1.7193   -5.3408   29.2468 H   0  0  0  0  0  0  0  0  0  0  0  0
    0.0949   -3.4670   28.0666 H   0  0  0  0  0  0  0  0  0  0  0  0
   -1.6158   -0.6926   30.0166 H   0  0  0  0  0  0  0  0  0  0  0  0
    0.5842   -2.1495   31.4608 H   0  0  0  0  0  0  0  0  0  0  0  0
   -0.6517   -1.0873   32.1016 H   0  0  0  0  0  0  0  0  0  0  0  0
   -1.9576   -3.3613   30.9339 H   0  0  0  0  0  0  0  0  0  0  0  0
   -2.0154   -2.7994   32.5569 H   0  0  0  0  0  0  0  0  0  0  0  0
   -0.7533   -5.3842   30.3357 H   0  0  0  0  0  0  0  0  0  0  0  0
   -1.0442   -8.0403   33.5646 H   0  0  0  0  0  0  0  0  0  0  0  0
   -0.8863   -3.9444   35.5548 H   0  0  0  0  0  0  0  0  0  0  0  0
   -0.4727   -2.7889   34.2847 H   0  0  0  0  0  0  0  0  0  0  0  0
    0.5162   -4.8539   36.7126 H   0  0  0  0  0  0  0  0  0  0  0  0
    3.2235   -4.4410   37.1473 H   0  0  0  0  0  0  0  0  0  0  0  0
    3.1453   -5.8480   36.0816 H   0  0  0  0  0  0  0  0  0  0  0  0
    4.3417   -5.8116   38.8963 H   0  0  0  0  0  0  0  0  0  0  0  0
    4.0455   -7.2961   40.8436 H   0  0  0  0  0  0  0  0  0  0  0  0
    1.9233   -8.5561   41.1413 H   0  0  0  0  0  0  0  0  0  0  0  0
    0.1263   -8.3397   39.4714 H   0  0  0  0  0  0  0  0  0  0  0  0
    0.4073   -6.9197   37.4956 H   0  0  0  0  0  0  0  0  0  0  0  0
  1  2  1  0
  2  3  1  0
  3  4  2  0
  4  5  1  0
  5  6  1  0
  6  7  2  0
  6  8  2  0
  6  9  1  0
  9 10  1  0
 10 11  1  0
 11 12  1  0
 12 13  2  0
 13 14  1  0
 14 15  2  0
 14 16  1  0
 16 17  1  0
 17 18  2  0
 17 19  1  0
 19 20  1  0
 20 21  1  0
 21 22  2  0
 21 23  1  0
 23 24  1  0
 24 25  1  0
 25 26  2  0
 26 27  1  0
 27 28  2  0
 28 29  1  0
 29 30  2  0
  5 31  2  0
 31  2  1  0
 19 12  1  0
 30 25  1  0
  1 32  1  0
  1 33  1  0
  1 34  1  0
  3 35  1  0
  4 36  1  0
  9 37  1  0
 10 38  1  0
 10 39  1  0
 11 40  1  0
 11 41  1  0
 13 42  1  0
 16 43  1  0
 20 44  1  0
 20 45  1  0
 23 46  1  0
 24 47  1  0
 24 48  1  0
 26 49  1  0
 27 50  1  0
 28 51  1  0
 29 52  1  0
 30 53  1  0
M  END
>  <Energy>  (265) 
18.698201247577082

>  <compound_id>  (265) 
4027

>  <target_id>  (265) 
1

>  <reference_id>  (265) 
140

>  <inspiration_ids>  (265) 
[140, 180]

>  <energy_score>  (265) 
-19.242217638652

>  <distance_score>  (265) 
1.8967944022946581

>  <path>  (265) 
/opt/xchem-fragalysis-2/maxwin/BulkDock/SCRATCH/505735/C4027-P140/C4027-P140.minimised.mol

>  <scratch_subdir>  (265) 
/opt/xchem-fragalysis-2/maxwin/BulkDock/SCRATCH/505735/C4027-P140

>  <fragmenstein_runtime>  (265) 
7.722301721572876

>  <fragmenstein_outcome>  (265) 
too moved

>  <fragmenstein_mode>  (265) 
expansion

>  <fragmenstein_error>  (265) 


$$$$
C4027-P180
     RDKit          3D

 53 55  0  0  0  0  0  0  0  0999 V2000
    3.1130   -4.6138   31.3849 C   0  0  0  0  0  0  0  0  0  0  0  0
    2.5213   -3.9500   30.2584 N   0  0  0  0  0  0  0  0  0  0  0  0
    1.8470   -4.5378   29.2373 C   0  0  0  0  0  0  0  0  0  0  0  0
    1.2336   -3.5113   28.5695 C   0  0  0  0  0  0  0  0  0  0  0  0
    1.6566   -2.3327   29.2199 C   0  0  0  0  0  0  0  0  0  0  0  0
    0.6738   -0.8852   29.1381 S   0  0  0  0  0  0  0  0  0  0  0  0
    0.3259   -0.6880   27.7558 O   0  0  0  0  0  0  0  0  0  0  0  0
    1.3227    0.1215   29.9470 O   0  0  0  0  0  0  0  0  0  0  0  0
   -0.7275   -1.4185   29.9764 N   0  0  0  0  0  0  0  0  0  0  0  0
   -0.4854   -1.6157   31.4301 C   0  0  0  0  0  0  0  0  0  0  0  0
   -1.2412   -2.8164   32.0690 C   0  0  0  0  0  0  0  0  0  0  0  0
   -0.6254   -4.2230   32.3719 C   0  0  0  0  0  0  0  0  0  0  0  0
   -0.7392   -5.1875   31.4459 C   0  0  0  0  0  0  0  0  0  0  0  0
   -0.8339   -6.6105   31.8442 C   0  0  0  0  0  0  0  0  0  0  0  0
   -1.0438   -7.5044   31.0299 O   0  0  0  0  0  0  0  0  0  0  0  0
   -0.7472   -6.8450   33.1776 N   0  0  0  0  0  0  0  0  0  0  0  0
   -0.2451   -5.9474   34.0723 C   0  0  0  0  0  0  0  0  0  0  0  0
    0.2315   -6.3703   35.1217 O   0  0  0  0  0  0  0  0  0  0  0  0
   -0.2740   -4.6008   33.6828 N   0  0  0  0  0  0  0  0  0  0  0  0
    0.5276   -3.6885   34.5099 C   0  0  0  0  0  0  0  0  0  0  0  0
    0.1692   -3.5934   36.0180 C   0  0  0  0  0  0  0  0  0  0  0  0
   -0.7672   -3.0018   36.3947 O   0  0  0  0  0  0  0  0  0  0  0  0
    1.2868   -4.3320   36.8179 N   0  0  0  0  0  0  0  0  0  0  0  0
    1.5260   -4.4085   38.2353 C   0  0  0  0  0  0  0  0  0  0  0  0
    1.7953   -5.8141   38.7194 C   0  0  0  0  0  0  0  0  0  0  0  0
    2.9721   -6.1423   39.4141 C   0  0  0  0  0  0  0  0  0  0  0  0
    3.1321   -7.4066   39.9897 C   0  0  0  0  0  0  0  0  0  0  0  0
    2.1196   -8.3546   39.8749 C   0  0  0  0  0  0  0  0  0  0  0  0
    0.9605   -8.0485   39.1669 C   0  0  0  0  0  0  0  0  0  0  0  0
    0.8021   -6.7924   38.5844 C   0  0  0  0  0  0  0  0  0  0  0  0
    2.5005   -2.6126   30.2328 N   0  0  0  0  0  0  0  0  0  0  0  0
    2.8805   -4.0539   32.2940 H   0  0  0  0  0  0  0  0  0  0  0  0
    2.7058   -5.6240   31.4688 H   0  0  0  0  0  0  0  0  0  0  0  0
    4.1938   -4.6464   31.2309 H   0  0  0  0  0  0  0  0  0  0  0  0
    1.7774   -5.6106   29.1334 H   0  0  0  0  0  0  0  0  0  0  0  0
    0.4537   -3.5910   27.8316 H   0  0  0  0  0  0  0  0  0  0  0  0
   -1.5019   -0.7955   29.7382 H   0  0  0  0  0  0  0  0  0  0  0  0
    0.5715   -1.7166   31.6829 H   0  0  0  0  0  0  0  0  0  0  0  0
   -0.8338   -0.6981   31.9220 H   0  0  0  0  0  0  0  0  0  0  0  0
   -2.1474   -2.9833   31.4684 H   0  0  0  0  0  0  0  0  0  0  0  0
   -1.6338   -2.4575   33.0320 H   0  0  0  0  0  0  0  0  0  0  0  0
   -0.9337   -4.9400   30.4142 H   0  0  0  0  0  0  0  0  0  0  0  0
   -0.7473   -7.8099   33.4756 H   0  0  0  0  0  0  0  0  0  0  0  0
    1.5773   -3.9794   34.3874 H   0  0  0  0  0  0  0  0  0  0  0  0
    0.4564   -2.6665   34.1202 H   0  0  0  0  0  0  0  0  0  0  0  0
    1.9033   -4.8105   36.1747 H   0  0  0  0  0  0  0  0  0  0  0  0
    0.6644   -3.9860   38.7634 H   0  0  0  0  0  0  0  0  0  0  0  0
    2.3868   -3.7627   38.4390 H   0  0  0  0  0  0  0  0  0  0  0  0
    3.7558   -5.4001   39.5481 H   0  0  0  0  0  0  0  0  0  0  0  0
    4.0363   -7.6437   40.5436 H   0  0  0  0  0  0  0  0  0  0  0  0
    2.2251   -9.3359   40.3315 H   0  0  0  0  0  0  0  0  0  0  0  0
    0.1725   -8.7921   39.0837 H   0  0  0  0  0  0  0  0  0  0  0  0
   -0.1216   -6.5629   38.0561 H   0  0  0  0  0  0  0  0  0  0  0  0
  1  2  1  0
  2  3  1  0
  3  4  2  0
  4  5  1  0
  5  6  1  0
  6  7  2  0
  6  8  2  0
  6  9  1  0
  9 10  1  0
 10 11  1  0
 11 12  1  0
 12 13  2  0
 13 14  1  0
 14 15  2  0
 14 16  1  0
 16 17  1  0
 17 18  2  0
 17 19  1  0
 19 20  1  0
 20 21  1  0
 21 22  2  0
 21 23  1  0
 23 24  1  0
 24 25  1  0
 25 26  2  0
 26 27  1  0
 27 28  2  0
 28 29  1  0
 29 30  2  0
  5 31  2  0
 31  2  1  0
 19 12  1  0
 30 25  1  0
  1 32  1  0
  1 33  1  0
  1 34  1  0
  3 35  1  0
  4 36  1  0
  9 37  1  0
 10 38  1  0
 10 39  1  0
 11 40  1  0
 11 41  1  0
 13 42  1  0
 16 43  1  0
 20 44  1  0
 20 45  1  0
 23 46  1  0
 24 47  1  0
 24 48  1  0
 26 49  1  0
 27 50  1  0
 28 51  1  0
 29 52  1  0
 30 53  1  0
M  END
>  <Energy>  (266) 
18.883186281687834

>  <compound_id>  (266) 
4027

>  <target_id>  (266) 
1

>  <reference_id>  (266) 
180

>  <inspiration_ids>  (266) 
[140, 180]

>  <energy_score>  (266) 
-19.057232604541827

>  <distance_score>  (266) 
2.2201401157583733

>  <path>  (266) 
/opt/xchem-fragalysis-2/maxwin/BulkDock/SCRATCH/505735/C4027-P180/C4027-P180.minimised.mol

>  <scratch_subdir>  (266) 
/opt/xchem-fragalysis-2/maxwin/BulkDock/SCRATCH/505735/C4027-P180

>  <fragmenstein_runtime>  (266) 
13.014095067977905

>  <fragmenstein_outcome>  (266) 
too moved

>  <fragmenstein_mode>  (266) 
expansion

>  <fragmenstein_error>  (266) 


$$$$
C4027-P140
     RDKit          3D

 53 55  0  0  0  0  0  0  0  0999 V2000
   -2.5385  -11.8285   27.3598 C   0  0  0  0  0  0  0  0  0  0  0  0
   -1.7764  -10.9157   28.3061 N   0  0  0  0  0  0  0  0  0  0  0  0
   -1.8540  -11.1799   29.6095 C   0  0  0  0  0  0  0  0  0  0  0  0
   -1.1689  -10.1937   30.3538 C   0  0  0  0  0  0  0  0  0  0  0  0
   -0.5577   -9.2425   29.5447 C   0  0  0  0  0  0  0  0  0  0  0  0
   -0.3934   -7.6674   30.3343 S   0  0  0  0  0  0  0  0  0  0  0  0
   -1.7479   -7.1912   30.2281 O   0  0  0  0  0  0  0  0  0  0  0  0
    0.1102   -7.9343   31.6587 O   0  0  0  0  0  0  0  0  0  0  0  0
    0.6080   -6.4769   29.7423 N   0  0  0  0  0  0  0  0  0  0  0  0
    0.3900   -5.1157   30.3329 C   0  0  0  0  0  0  0  0  0  0  0  0
    1.1011   -4.8450   31.6830 C   0  0  0  0  0  0  0  0  0  0  0  0
    0.4364   -5.1197   33.0406 C   0  0  0  0  0  0  0  0  0  0  0  0
   -0.7497   -5.7364   33.1634 C   0  0  0  0  0  0  0  0  0  0  0  0
   -1.2426   -6.1656   34.4802 C   0  0  0  0  0  0  0  0  0  0  0  0
   -2.1044   -7.0270   34.6078 O   0  0  0  0  0  0  0  0  0  0  0  0
   -0.6779   -5.5405   35.5354 N   0  0  0  0  0  0  0  0  0  0  0  0
    0.4771   -4.8372   35.4747 C   0  0  0  0  0  0  0  0  0  0  0  0
    0.9698   -4.3921   36.5112 O   0  0  0  0  0  0  0  0  0  0  0  0
    1.0748   -4.6924   34.2207 N   0  0  0  0  0  0  0  0  0  0  0  0
    2.3573   -3.9784   34.2283 C   0  0  0  0  0  0  0  0  0  0  0  0
    3.5409   -4.8920   34.6320 C   0  0  0  0  0  0  0  0  0  0  0  0
    4.3217   -5.2243   33.7859 O   0  0  0  0  0  0  0  0  0  0  0  0
    3.4983   -5.1861   36.0342 N   0  0  0  0  0  0  0  0  0  0  0  0
    4.4264   -5.8905   36.8808 C   0  0  0  0  0  0  0  0  0  0  0  0
    3.7497   -6.7672   37.9069 C   0  0  0  0  0  0  0  0  0  0  0  0
    4.2832   -8.0317   38.1984 C   0  0  0  0  0  0  0  0  0  0  0  0
    3.6907   -8.8545   39.1600 C   0  0  0  0  0  0  0  0  0  0  0  0
    2.5536   -8.4292   39.8416 C   0  0  0  0  0  0  0  0  0  0  0  0
    2.0277   -7.1674   39.5864 C   0  0  0  0  0  0  0  0  0  0  0  0
    2.6321   -6.3361   38.6403 C   0  0  0  0  0  0  0  0  0  0  0  0
   -0.6746   -9.6549   28.2536 N   0  0  0  0  0  0  0  0  0  0  0  0
   -2.2926  -12.8937   27.3295 H   0  0  0  0  0  0  0  0  0  0  0  0
   -3.5418  -11.9346   27.7691 H   0  0  0  0  0  0  0  0  0  0  0  0
   -2.4965  -11.5199   26.3427 H   0  0  0  0  0  0  0  0  0  0  0  0
   -2.3972  -12.0982   29.7788 H   0  0  0  0  0  0  0  0  0  0  0  0
   -1.2593   -9.9830   31.4000 H   0  0  0  0  0  0  0  0  0  0  0  0
    1.5820   -6.7311   29.6942 H   0  0  0  0  0  0  0  0  0  0  0  0
    0.8212   -4.4247   29.5956 H   0  0  0  0  0  0  0  0  0  0  0  0
   -0.6673   -4.8561   30.3847 H   0  0  0  0  0  0  0  0  0  0  0  0
    2.0749   -5.3502   31.6703 H   0  0  0  0  0  0  0  0  0  0  0  0
    1.2957   -3.7644   31.6622 H   0  0  0  0  0  0  0  0  0  0  0  0
   -1.3736   -6.0492   32.3460 H   0  0  0  0  0  0  0  0  0  0  0  0
   -1.0191   -5.7727   36.4546 H   0  0  0  0  0  0  0  0  0  0  0  0
    2.5856   -3.5289   33.2594 H   0  0  0  0  0  0  0  0  0  0  0  0
    2.3104   -3.1372   34.9320 H   0  0  0  0  0  0  0  0  0  0  0  0
    2.7323   -4.6629   36.4606 H   0  0  0  0  0  0  0  0  0  0  0  0
    5.0388   -5.1412   37.3936 H   0  0  0  0  0  0  0  0  0  0  0  0
    5.0856   -6.4775   36.2321 H   0  0  0  0  0  0  0  0  0  0  0  0
    5.1670   -8.3907   37.6755 H   0  0  0  0  0  0  0  0  0  0  0  0
    4.1060   -9.8369   39.3688 H   0  0  0  0  0  0  0  0  0  0  0  0
    2.0721   -9.0857   40.5632 H   0  0  0  0  0  0  0  0  0  0  0  0
    1.1476   -6.8297   40.1271 H   0  0  0  0  0  0  0  0  0  0  0  0
    2.2134   -5.3449   38.4900 H   0  0  0  0  0  0  0  0  0  0  0  0
  1  2  1  0
  2  3  1  0
  3  4  2  0
  4  5  1  0
  5  6  1  0
  6  7  2  0
  6  8  2  0
  6  9  1  0
  9 10  1  0
 10 11  1  0
 11 12  1  0
 12 13  2  0
 13 14  1  0
 14 15  2  0
 14 16  1  0
 16 17  1  0
 17 18  2  0
 17 19  1  0
 19 20  1  0
 20 21  1  0
 21 22  2  0
 21 23  1  0
 23 24  1  0
 24 25  1  0
 25 26  2  0
 26 27  1  0
 27 28  2  0
 28 29  1  0
 29 30  2  0
  5 31  2  0
 31  2  1  0
 19 12  1  0
 30 25  1  0
  1 32  1  0
  1 33  1  0
  1 34  1  0
  3 35  1  0
  4 36  1  0
  9 37  1  0
 10 38  1  0
 10 39  1  0
 11 40  1  0
 11 41  1  0
 13 42  1  0
 16 43  1  0
 20 44  1  0
 20 45  1  0
 23 46  1  0
 24 47  1  0
 24 48  1  0
 26 49  1  0
 27 50  1  0
 28 51  1  0
 29 52  1  0
 30 53  1  0
M  END
>  <Energy>  (267) 
68.957482414456109

>  <compound_id>  (267) 
4027

>  <target_id>  (267) 
1

>  <reference_id>  (267) 
140

>  <inspiration_ids>  (267) 
[140, 183]

>  <energy_score>  (267) 
37.26398385769872

>  <distance_score>  (267) 
1.953079839690876

>  <path>  (267) 
/opt/xchem-fragalysis-2/maxwin/BulkDock/SCRATCH/505735/C4027-P140/C4027-P140.minimised.mol

>  <scratch_subdir>  (267) 
/opt/xchem-fragalysis-2/maxwin/BulkDock/SCRATCH/505735/C4027-P140

>  <fragmenstein_runtime>  (267) 
16.634163856506348

>  <fragmenstein_outcome>  (267) 
too moved

>  <fragmenstein_mode>  (267) 
expansion

>  <fragmenstein_error>  (267) 


$$$$
C4027-P183
     RDKit          3D

 53 55  0  0  0  0  0  0  0  0999 V2000
   -0.2303   -6.1954   30.3184 C   0  0  0  0  0  0  0  0  0  0  0  0
    0.4943   -5.0132   29.9281 N   0  0  0  0  0  0  0  0  0  0  0  0
    0.0397   -3.9696   29.1806 C   0  0  0  0  0  0  0  0  0  0  0  0
    1.0140   -3.0014   29.2300 C   0  0  0  0  0  0  0  0  0  0  0  0
    2.0112   -3.5522   30.0603 C   0  0  0  0  0  0  0  0  0  0  0  0
    3.3404   -2.6449   30.7453 S   0  0  0  0  0  0  0  0  0  0  0  0
    4.4893   -2.9586   29.9265 O   0  0  0  0  0  0  0  0  0  0  0  0
    2.8418   -1.2967   30.9045 O   0  0  0  0  0  0  0  0  0  0  0  0
    3.6228   -3.2571   32.3001 N   0  0  0  0  0  0  0  0  0  0  0  0
    2.4360   -3.3547   33.1874 C   0  0  0  0  0  0  0  0  0  0  0  0
    2.5145   -4.6777   33.9512 C   0  0  0  0  0  0  0  0  0  0  0  0
    1.2177   -5.4336   34.1465 C   0  0  0  0  0  0  0  0  0  0  0  0
    0.9707   -6.5033   33.3809 C   0  0  0  0  0  0  0  0  0  0  0  0
   -0.2362   -7.3013   33.6257 C   0  0  0  0  0  0  0  0  0  0  0  0
   -0.7314   -7.9823   32.7364 O   0  0  0  0  0  0  0  0  0  0  0  0
   -0.7109   -7.2070   34.8927 N   0  0  0  0  0  0  0  0  0  0  0  0
   -0.6138   -6.0502   35.6166 C   0  0  0  0  0  0  0  0  0  0  0  0
   -1.3339   -5.8515   36.5923 O   0  0  0  0  0  0  0  0  0  0  0  0
    0.3298   -5.1223   35.1709 N   0  0  0  0  0  0  0  0  0  0  0  0
    0.3057   -3.7985   35.7980 C   0  0  0  0  0  0  0  0  0  0  0  0
    1.2763   -3.6531   36.9784 C   0  0  0  0  0  0  0  0  0  0  0  0
    2.2314   -2.9401   36.8568 O   0  0  0  0  0  0  0  0  0  0  0  0
    0.8107   -4.4071   38.0991 N   0  0  0  0  0  0  0  0  0  0  0  0
    1.3877   -4.6214   39.3942 C   0  0  0  0  0  0  0  0  0  0  0  0
    1.8193   -6.0510   39.5575 C   0  0  0  0  0  0  0  0  0  0  0  0
    3.1769   -6.3922   39.6297 C   0  0  0  0  0  0  0  0  0  0  0  0
    3.5625   -7.7224   39.8010 C   0  0  0  0  0  0  0  0  0  0  0  0
    2.5957   -8.7209   39.8937 C   0  0  0  0  0  0  0  0  0  0  0  0
    1.2450   -8.3915   39.8108 C   0  0  0  0  0  0  0  0  0  0  0  0
    0.8569   -7.0657   39.6406 C   0  0  0  0  0  0  0  0  0  0  0  0
    1.7248   -4.8202   30.4281 N   0  0  0  0  0  0  0  0  0  0  0  0
    0.4757   -7.0088   30.4951 H   0  0  0  0  0  0  0  0  0  0  0  0
   -0.7948   -5.9458   31.2173 H   0  0  0  0  0  0  0  0  0  0  0  0
   -0.9167   -6.5016   29.5353 H   0  0  0  0  0  0  0  0  0  0  0  0
   -0.9334   -3.9724   28.7085 H   0  0  0  0  0  0  0  0  0  0  0  0
    0.9689   -2.0073   28.8035 H   0  0  0  0  0  0  0  0  0  0  0  0
    4.4152   -2.7727   32.7236 H   0  0  0  0  0  0  0  0  0  0  0  0
    2.4680   -2.5100   33.8845 H   0  0  0  0  0  0  0  0  0  0  0  0
    1.4953   -3.2812   32.6367 H   0  0  0  0  0  0  0  0  0  0  0  0
    3.2193   -5.3462   33.4344 H   0  0  0  0  0  0  0  0  0  0  0  0
    2.9931   -4.5115   34.9232 H   0  0  0  0  0  0  0  0  0  0  0  0
    1.6057   -6.7908   32.5574 H   0  0  0  0  0  0  0  0  0  0  0  0
   -1.4570   -7.8416   35.1418 H   0  0  0  0  0  0  0  0  0  0  0  0
    0.5235   -3.0310   35.0496 H   0  0  0  0  0  0  0  0  0  0  0  0
   -0.7066   -3.5681   36.1548 H   0  0  0  0  0  0  0  0  0  0  0  0
   -0.0859   -4.8342   37.8630 H   0  0  0  0  0  0  0  0  0  0  0  0
    0.6358   -4.3662   40.1486 H   0  0  0  0  0  0  0  0  0  0  0  0
    2.2333   -3.9365   39.5182 H   0  0  0  0  0  0  0  0  0  0  0  0
    3.9412   -5.6214   39.5571 H   0  0  0  0  0  0  0  0  0  0  0  0
    4.6168   -7.9781   39.8627 H   0  0  0  0  0  0  0  0  0  0  0  0
    2.8922   -9.7572   40.0254 H   0  0  0  0  0  0  0  0  0  0  0  0
    0.4879   -9.1669   39.8749 H   0  0  0  0  0  0  0  0  0  0  0  0
   -0.2026   -6.8268   39.5768 H   0  0  0  0  0  0  0  0  0  0  0  0
  1  2  1  0
  2  3  1  0
  3  4  2  0
  4  5  1  0
  5  6  1  0
  6  7  2  0
  6  8  2  0
  6  9  1  0
  9 10  1  0
 10 11  1  0
 11 12  1  0
 12 13  2  0
 13 14  1  0
 14 15  2  0
 14 16  1  0
 16 17  1  0
 17 18  2  0
 17 19  1  0
 19 20  1  0
 20 21  1  0
 21 22  2  0
 21 23  1  0
 23 24  1  0
 24 25  1  0
 25 26  2  0
 26 27  1  0
 27 28  2  0
 28 29  1  0
 29 30  2  0
  5 31  2  0
 31  2  1  0
 19 12  1  0
 30 25  1  0
  1 32  1  0
  1 33  1  0
  1 34  1  0
  3 35  1  0
  4 36  1  0
  9 37  1  0
 10 38  1  0
 10 39  1  0
 11 40  1  0
 11 41  1  0
 13 42  1  0
 16 43  1  0
 20 44  1  0
 20 45  1  0
 23 46  1  0
 24 47  1  0
 24 48  1  0
 26 49  1  0
 27 50  1  0
 28 51  1  0
 29 52  1  0
 30 53  1  0
M  END
>  <Energy>  (268) 
-21.163900890136265

>  <compound_id>  (268) 
4027

>  <target_id>  (268) 
1

>  <reference_id>  (268) 
183

>  <inspiration_ids>  (268) 
[140, 183]

>  <energy_score>  (268) 
-52.85739944689067

>  <distance_score>  (268) 
2.745404222773956

>  <path>  (268) 
/opt/xchem-fragalysis-2/maxwin/BulkDock/SCRATCH/505735/C4027-P183/C4027-P183.minimised.mol

>  <scratch_subdir>  (268) 
/opt/xchem-fragalysis-2/maxwin/BulkDock/SCRATCH/505735/C4027-P183

>  <fragmenstein_runtime>  (268) 
24.65828537940979

>  <fragmenstein_outcome>  (268) 
too moved

>  <fragmenstein_mode>  (268) 
expansion

>  <fragmenstein_error>  (268) 


$$$$
C4028-P140
     RDKit          3D

 49 51  0  0  0  0  0  0  0  0999 V2000
    2.6677   -7.1191   34.3364 O   0  0  0  0  0  0  0  0  0  0  0  0
    2.3027   -6.1780   34.9271 C   0  0  0  0  0  0  0  0  0  0  0  0
    1.2496   -5.1888   34.3627 C   0  0  0  0  0  0  0  0  0  0  0  0
    0.3755   -5.9259   33.4548 N   0  0  0  0  0  0  0  0  0  0  0  0
    0.5316   -5.9371   32.0671 C   0  0  0  0  0  0  0  0  0  0  0  0
    1.5607   -5.0930   31.3408 C   0  0  0  0  0  0  0  0  0  0  0  0
    0.9711   -3.8146   30.7370 C   0  0  0  0  0  0  0  0  0  0  0  0
    0.5158   -2.9311   31.8153 N   0  0  0  0  0  0  0  0  0  0  0  0
   -1.0597   -2.3285   31.7292 S   0  0  0  0  0  0  0  0  0  0  0  0
   -1.9572   -3.4087   31.3768 O   0  0  0  0  0  0  0  0  0  0  0  0
   -1.2483   -1.5074   32.9014 O   0  0  0  0  0  0  0  0  0  0  0  0
   -1.0898   -1.2141   30.3771 C   0  0  0  0  0  0  0  0  0  0  0  0
   -1.3923   -1.5964   29.0857 C   0  0  0  0  0  0  0  0  0  0  0  0
   -1.2285   -0.2581   28.0310 S   0  0  0  0  0  0  0  0  0  0  0  0
   -0.7556    0.7161   29.3527 C   0  0  0  0  0  0  0  0  0  0  0  0
   -0.6822    0.1148   30.5203 N   0  0  0  0  0  0  0  0  0  0  0  0
   -0.2355   -6.7420   31.3227 C   0  0  0  0  0  0  0  0  0  0  0  0
   -1.2047   -7.6302   31.9546 C   0  0  0  0  0  0  0  0  0  0  0  0
   -1.8460   -8.4015   31.2547 O   0  0  0  0  0  0  0  0  0  0  0  0
   -1.3112   -7.5446   33.3018 N   0  0  0  0  0  0  0  0  0  0  0  0
   -0.5608   -6.7393   34.1055 C   0  0  0  0  0  0  0  0  0  0  0  0
   -0.7043   -6.7863   35.3267 O   0  0  0  0  0  0  0  0  0  0  0  0
    2.6757   -5.6754   36.3464 N   0  0  0  0  0  0  0  0  0  0  0  0
    3.6401   -6.1720   37.2885 C   0  0  0  0  0  0  0  0  0  0  0  0
    3.0043   -6.8052   38.4991 C   0  0  0  0  0  0  0  0  0  0  0  0
    3.7890   -7.0285   39.6418 C   0  0  0  0  0  0  0  0  0  0  0  0
    3.2498   -7.6524   40.7691 C   0  0  0  0  0  0  0  0  0  0  0  0
    1.9207   -8.0645   40.7687 C   0  0  0  0  0  0  0  0  0  0  0  0
    1.1321   -7.8556   39.6421 C   0  0  0  0  0  0  0  0  0  0  0  0
    1.6701   -7.2409   38.5112 C   0  0  0  0  0  0  0  0  0  0  0  0
    0.6418   -4.7729   35.1742 H   0  0  0  0  0  0  0  0  0  0  0  0
    1.7601   -4.3571   33.8752 H   0  0  0  0  0  0  0  0  0  0  0  0
    2.4227   -4.8653   31.9751 H   0  0  0  0  0  0  0  0  0  0  0  0
    1.9778   -5.6742   30.5090 H   0  0  0  0  0  0  0  0  0  0  0  0
    1.7393   -3.2896   30.1586 H   0  0  0  0  0  0  0  0  0  0  0  0
    0.1641   -4.0698   30.0428 H   0  0  0  0  0  0  0  0  0  0  0  0
    1.1559   -2.1792   32.0798 H   0  0  0  0  0  0  0  0  0  0  0  0
   -1.7014   -2.5634   28.7161 H   0  0  0  0  0  0  0  0  0  0  0  0
   -0.5168    1.7643   29.2208 H   0  0  0  0  0  0  0  0  0  0  0  0
   -0.1651   -6.8072   30.2457 H   0  0  0  0  0  0  0  0  0  0  0  0
   -1.8798   -8.2348   33.7735 H   0  0  0  0  0  0  0  0  0  0  0  0
    2.2355   -4.7782   36.5143 H   0  0  0  0  0  0  0  0  0  0  0  0
    4.2606   -5.3207   37.5866 H   0  0  0  0  0  0  0  0  0  0  0  0
    4.2639   -6.9131   36.7780 H   0  0  0  0  0  0  0  0  0  0  0  0
    4.8332   -6.7247   39.6598 H   0  0  0  0  0  0  0  0  0  0  0  0
    3.8692   -7.8276   41.6446 H   0  0  0  0  0  0  0  0  0  0  0  0
    1.5012   -8.5715   41.6336 H   0  0  0  0  0  0  0  0  0  0  0  0
    0.1050   -8.2114   39.6302 H   0  0  0  0  0  0  0  0  0  0  0  0
    1.0314   -7.1326   37.6372 H   0  0  0  0  0  0  0  0  0  0  0  0
  1  2  2  0
  2  3  1  0
  3  4  1  0
  4  5  1  0
  5  6  1  0
  6  7  1  0
  7  8  1  0
  8  9  1  0
  9 10  2  0
  9 11  2  0
  9 12  1  0
 12 13  2  0
 13 14  1  0
 14 15  1  0
 15 16  2  0
  5 17  2  0
 17 18  1  0
 18 19  2  0
 18 20  1  0
 20 21  1  0
 21 22  2  0
  2 23  1  0
 23 24  1  0
 24 25  1  0
 25 26  2  0
 26 27  1  0
 27 28  2  0
 28 29  1  0
 29 30  2  0
 21  4  1  0
 30 25  1  0
 16 12  1  0
  3 31  1  0
  3 32  1  0
  6 33  1  0
  6 34  1  0
  7 35  1  0
  7 36  1  0
  8 37  1  0
 13 38  1  0
 15 39  1  0
 17 40  1  0
 20 41  1  0
 23 42  1  0
 24 43  1  0
 24 44  1  0
 26 45  1  0
 27 46  1  0
 28 47  1  0
 29 48  1  0
 30 49  1  0
M  END
>  <Energy>  (269) 
-37.454653604752643

>  <compound_id>  (269) 
4028

>  <target_id>  (269) 
1

>  <reference_id>  (269) 
140

>  <inspiration_ids>  (269) 
[140, 186]

>  <energy_score>  (269) 
-300.393875870511

>  <distance_score>  (269) 
0.5056255260297443

>  <path>  (269) 
/opt/xchem-fragalysis-2/maxwin/BulkDock/SCRATCH/505735/C4028-P140/C4028-P140.minimised.mol

>  <scratch_subdir>  (269) 
/opt/xchem-fragalysis-2/maxwin/BulkDock/SCRATCH/505735/C4028-P140

>  <fragmenstein_runtime>  (269) 
3.3141307830810547

>  <fragmenstein_outcome>  (269) 
acceptable

>  <fragmenstein_mode>  (269) 
expansion

>  <fragmenstein_error>  (269) 


$$$$
C4028-P186
     RDKit          3D

 49 51  0  0  0  0  0  0  0  0999 V2000
    2.6232   -7.4288   34.3364 O   0  0  0  0  0  0  0  0  0  0  0  0
    2.3010   -6.4762   34.9340 C   0  0  0  0  0  0  0  0  0  0  0  0
    1.2592   -5.4565   34.4048 C   0  0  0  0  0  0  0  0  0  0  0  0
    0.3742   -6.1582   33.4806 N   0  0  0  0  0  0  0  0  0  0  0  0
    0.5466   -6.1518   32.0958 C   0  0  0  0  0  0  0  0  0  0  0  0
    1.5862   -5.2928   31.4033 C   0  0  0  0  0  0  0  0  0  0  0  0
    1.0062   -3.9905   30.8526 C   0  0  0  0  0  0  0  0  0  0  0  0
    0.5318   -3.1444   31.9595 N   0  0  0  0  0  0  0  0  0  0  0  0
   -1.0604   -2.5750   31.8752 S   0  0  0  0  0  0  0  0  0  0  0  0
   -1.9413   -3.6866   31.5791 O   0  0  0  0  0  0  0  0  0  0  0  0
   -1.2516   -1.6905   32.9991 O   0  0  0  0  0  0  0  0  0  0  0  0
   -1.1098   -1.5511   30.4603 C   0  0  0  0  0  0  0  0  0  0  0  0
   -1.3039   -2.0704   29.1977 C   0  0  0  0  0  0  0  0  0  0  0  0
   -1.0066   -0.8704   28.0373 S   0  0  0  0  0  0  0  0  0  0  0  0
   -0.7427    0.2765   29.2795 C   0  0  0  0  0  0  0  0  0  0  0  0
   -0.7783   -0.1949   30.5074 N   0  0  0  0  0  0  0  0  0  0  0  0
   -0.2128   -6.9450   31.3300 C   0  0  0  0  0  0  0  0  0  0  0  0
   -1.1885   -7.8446   31.9398 C   0  0  0  0  0  0  0  0  0  0  0  0
   -1.8237   -8.6136   31.2291 O   0  0  0  0  0  0  0  0  0  0  0  0
   -1.3085   -7.7754   33.2880 N   0  0  0  0  0  0  0  0  0  0  0  0
   -0.5730   -6.9730   34.1096 C   0  0  0  0  0  0  0  0  0  0  0  0
   -0.7388   -7.0296   35.3275 O   0  0  0  0  0  0  0  0  0  0  0  0
    2.7156   -5.9880   36.3467 N   0  0  0  0  0  0  0  0  0  0  0  0
    3.6783   -6.5180   37.2711 C   0  0  0  0  0  0  0  0  0  0  0  0
    3.0225   -7.0488   38.5184 C   0  0  0  0  0  0  0  0  0  0  0  0
    3.7450   -7.0809   39.7201 C   0  0  0  0  0  0  0  0  0  0  0  0
    3.1763   -7.6147   40.8785 C   0  0  0  0  0  0  0  0  0  0  0  0
    1.8828   -8.1293   40.8490 C   0  0  0  0  0  0  0  0  0  0  0  0
    1.1586   -8.1155   39.6617 C   0  0  0  0  0  0  0  0  0  0  0  0
    1.7254   -7.5872   38.5022 C   0  0  0  0  0  0  0  0  0  0  0  0
    0.6605   -5.0598   35.2327 H   0  0  0  0  0  0  0  0  0  0  0  0
    1.7772   -4.6157   33.9419 H   0  0  0  0  0  0  0  0  0  0  0  0
    2.4493   -5.0965   32.0462 H   0  0  0  0  0  0  0  0  0  0  0  0
    1.9987   -5.8464   30.5503 H   0  0  0  0  0  0  0  0  0  0  0  0
    1.7783   -3.4418   30.3022 H   0  0  0  0  0  0  0  0  0  0  0  0
    0.2096   -4.2286   30.1424 H   0  0  0  0  0  0  0  0  0  0  0  0
    1.1521   -2.3747   32.2212 H   0  0  0  0  0  0  0  0  0  0  0  0
   -1.5509   -3.0820   28.9090 H   0  0  0  0  0  0  0  0  0  0  0  0
   -0.5276    1.3146   29.0547 H   0  0  0  0  0  0  0  0  0  0  0  0
   -0.1270   -6.9936   30.2526 H   0  0  0  0  0  0  0  0  0  0  0  0
   -1.8909   -8.4612   33.7466 H   0  0  0  0  0  0  0  0  0  0  0  0
    2.3093   -5.0765   36.5227 H   0  0  0  0  0  0  0  0  0  0  0  0
    4.3687   -5.7033   37.5120 H   0  0  0  0  0  0  0  0  0  0  0  0
    4.2303   -7.3234   36.7761 H   0  0  0  0  0  0  0  0  0  0  0  0
    4.7615   -6.6968   39.7631 H   0  0  0  0  0  0  0  0  0  0  0  0
    3.7460   -7.6397   41.8036 H   0  0  0  0  0  0  0  0  0  0  0  0
    1.4444   -8.5643   41.7433 H   0  0  0  0  0  0  0  0  0  0  0  0
    0.1645   -8.5544   39.6292 H   0  0  0  0  0  0  0  0  0  0  0  0
    1.1433   -7.6267   37.5836 H   0  0  0  0  0  0  0  0  0  0  0  0
  1  2  2  0
  2  3  1  0
  3  4  1  0
  4  5  1  0
  5  6  1  0
  6  7  1  0
  7  8  1  0
  8  9  1  0
  9 10  2  0
  9 11  2  0
  9 12  1  0
 12 13  2  0
 13 14  1  0
 14 15  1  0
 15 16  2  0
  5 17  2  0
 17 18  1  0
 18 19  2  0
 18 20  1  0
 20 21  1  0
 21 22  2  0
  2 23  1  0
 23 24  1  0
 24 25  1  0
 25 26  2  0
 26 27  1  0
 27 28  2  0
 28 29  1  0
 29 30  2  0
 21  4  1  0
 30 25  1  0
 16 12  1  0
  3 31  1  0
  3 32  1  0
  6 33  1  0
  6 34  1  0
  7 35  1  0
  7 36  1  0
  8 37  1  0
 13 38  1  0
 15 39  1  0
 17 40  1  0
 20 41  1  0
 23 42  1  0
 24 43  1  0
 24 44  1  0
 26 45  1  0
 27 46  1  0
 28 47  1  0
 29 48  1  0
 30 49  1  0
M  END
>  <Energy>  (270) 
-36.281139628358694

>  <compound_id>  (270) 
4028

>  <target_id>  (270) 
1

>  <reference_id>  (270) 
186

>  <inspiration_ids>  (270) 
[140, 186]

>  <energy_score>  (270) 
-299.2203618941178

>  <distance_score>  (270) 
0.5456610501970229

>  <path>  (270) 
/opt/xchem-fragalysis-2/maxwin/BulkDock/SCRATCH/505735/C4028-P186/C4028-P186.minimised.mol

>  <scratch_subdir>  (270) 
/opt/xchem-fragalysis-2/maxwin/BulkDock/SCRATCH/505735/C4028-P186

>  <fragmenstein_runtime>  (270) 
2.8482542037963867

>  <fragmenstein_outcome>  (270) 
acceptable

>  <fragmenstein_mode>  (270) 
expansion

>  <fragmenstein_error>  (270) 


$$$$
C4028-P140
     RDKit          3D

 49 51  0  0  0  0  0  0  0  0999 V2000
    2.6705   -7.0236   34.2809 O   0  0  0  0  0  0  0  0  0  0  0  0
    2.2837   -6.0942   34.8763 C   0  0  0  0  0  0  0  0  0  0  0  0
    1.2149   -5.1221   34.3083 C   0  0  0  0  0  0  0  0  0  0  0  0
    0.3442   -5.8820   33.4158 N   0  0  0  0  0  0  0  0  0  0  0  0
    0.4778   -5.8967   32.0253 C   0  0  0  0  0  0  0  0  0  0  0  0
    1.4662   -5.0283   31.2692 C   0  0  0  0  0  0  0  0  0  0  0  0
    0.8205   -3.7805   30.6534 C   0  0  0  0  0  0  0  0  0  0  0  0
    0.4087   -2.8691   31.7259 N   0  0  0  0  0  0  0  0  0  0  0  0
   -1.1384   -2.1969   31.6498 S   0  0  0  0  0  0  0  0  0  0  0  0
   -2.0853   -3.2454   31.3330 O   0  0  0  0  0  0  0  0  0  0  0  0
   -1.2700   -1.3522   32.8135 O   0  0  0  0  0  0  0  0  0  0  0  0
   -1.1502   -1.1026   30.2817 C   0  0  0  0  0  0  0  0  0  0  0  0
   -1.4153   -1.5105   28.9900 C   0  0  0  0  0  0  0  0  0  0  0  0
   -1.2646   -0.1834   27.9204 S   0  0  0  0  0  0  0  0  0  0  0  0
   -0.8497    0.8219   29.2363 C   0  0  0  0  0  0  0  0  0  0  0  0
   -0.7813    0.2389   30.4138 N   0  0  0  0  0  0  0  0  0  0  0  0
   -0.2767   -6.7304   31.2999 C   0  0  0  0  0  0  0  0  0  0  0  0
   -1.2116   -7.6396   31.9524 C   0  0  0  0  0  0  0  0  0  0  0  0
   -1.8411   -8.4328   31.2668 O   0  0  0  0  0  0  0  0  0  0  0  0
   -1.3036   -7.5448   33.2997 N   0  0  0  0  0  0  0  0  0  0  0  0
   -0.5625   -6.7143   34.0862 C   0  0  0  0  0  0  0  0  0  0  0  0
   -0.6872   -6.7564   35.3097 O   0  0  0  0  0  0  0  0  0  0  0  0
    2.6386   -5.5948   36.3016 N   0  0  0  0  0  0  0  0  0  0  0  0
    3.6077   -6.0796   37.2461 C   0  0  0  0  0  0  0  0  0  0  0  0
    2.9853   -6.7478   38.4454 C   0  0  0  0  0  0  0  0  0  0  0  0
    3.7822   -6.9954   39.5752 C   0  0  0  0  0  0  0  0  0  0  0  0
    3.2576   -7.6485   40.6930 C   0  0  0  0  0  0  0  0  0  0  0  0
    1.9304   -8.0661   40.6962 C   0  0  0  0  0  0  0  0  0  0  0  0
    1.1296   -7.8328   39.5829 C   0  0  0  0  0  0  0  0  0  0  0  0
    1.6531   -7.1885   38.4613 C   0  0  0  0  0  0  0  0  0  0  0  0
    0.6067   -4.7037   35.1181 H   0  0  0  0  0  0  0  0  0  0  0  0
    1.7125   -4.2912   33.8065 H   0  0  0  0  0  0  0  0  0  0  0  0
    2.3292   -4.7596   31.8858 H   0  0  0  0  0  0  0  0  0  0  0  0
    1.8917   -5.6132   30.4430 H   0  0  0  0  0  0  0  0  0  0  0  0
    1.5481   -3.2631   30.0185 H   0  0  0  0  0  0  0  0  0  0  0  0
   -0.0192   -4.0732   30.0152 H   0  0  0  0  0  0  0  0  0  0  0  0
    1.0840   -2.1484   31.9885 H   0  0  0  0  0  0  0  0  0  0  0  0
   -1.6979   -2.4883   28.6280 H   0  0  0  0  0  0  0  0  0  0  0  0
   -0.6407    1.8748   29.0934 H   0  0  0  0  0  0  0  0  0  0  0  0
   -0.2216   -6.8026   30.2223 H   0  0  0  0  0  0  0  0  0  0  0  0
   -1.8492   -8.2450   33.7844 H   0  0  0  0  0  0  0  0  0  0  0  0
    2.1799   -4.7077   36.4735 H   0  0  0  0  0  0  0  0  0  0  0  0
    4.2034   -5.2166   37.5608 H   0  0  0  0  0  0  0  0  0  0  0  0
    4.2546   -6.7961   36.7294 H   0  0  0  0  0  0  0  0  0  0  0  0
    4.8252   -6.6870   39.5901 H   0  0  0  0  0  0  0  0  0  0  0  0
    3.8867   -7.8419   41.5576 H   0  0  0  0  0  0  0  0  0  0  0  0
    1.5215   -8.5959   41.5525 H   0  0  0  0  0  0  0  0  0  0  0  0
    0.1036   -8.1915   39.5739 H   0  0  0  0  0  0  0  0  0  0  0  0
    1.0043   -7.0600   37.5976 H   0  0  0  0  0  0  0  0  0  0  0  0
  1  2  2  0
  2  3  1  0
  3  4  1  0
  4  5  1  0
  5  6  1  0
  6  7  1  0
  7  8  1  0
  8  9  1  0
  9 10  2  0
  9 11  2  0
  9 12  1  0
 12 13  2  0
 13 14  1  0
 14 15  1  0
 15 16  2  0
  5 17  2  0
 17 18  1  0
 18 19  2  0
 18 20  1  0
 20 21  1  0
 21 22  2  0
  2 23  1  0
 23 24  1  0
 24 25  1  0
 25 26  2  0
 26 27  1  0
 27 28  2  0
 28 29  1  0
 29 30  2  0
 21  4  1  0
 30 25  1  0
 16 12  1  0
  3 31  1  0
  3 32  1  0
  6 33  1  0
  6 34  1  0
  7 35  1  0
  7 36  1  0
  8 37  1  0
 13 38  1  0
 15 39  1  0
 17 40  1  0
 20 41  1  0
 23 42  1  0
 24 43  1  0
 24 44  1  0
 26 45  1  0
 27 46  1  0
 28 47  1  0
 29 48  1  0
 30 49  1  0
M  END
>  <Energy>  (271) 
-36.780961227430168

>  <compound_id>  (271) 
4028

>  <target_id>  (271) 
1

>  <reference_id>  (271) 
140

>  <inspiration_ids>  (271) 
[140, 187]

>  <energy_score>  (271) 
-299.7201834931891

>  <distance_score>  (271) 
0.5215326450095213

>  <path>  (271) 
/opt/xchem-fragalysis-2/maxwin/BulkDock/SCRATCH/505735/C4028-P140/C4028-P140.minimised.mol

>  <scratch_subdir>  (271) 
/opt/xchem-fragalysis-2/maxwin/BulkDock/SCRATCH/505735/C4028-P140

>  <fragmenstein_runtime>  (271) 
3.258239507675171

>  <fragmenstein_outcome>  (271) 
acceptable

>  <fragmenstein_mode>  (271) 
expansion

>  <fragmenstein_error>  (271) 


$$$$
C4028-P187
     RDKit          3D

 49 51  0  0  0  0  0  0  0  0999 V2000
    2.7876   -7.2782   34.2153 O   0  0  0  0  0  0  0  0  0  0  0  0
    2.4109   -6.3744   34.8536 C   0  0  0  0  0  0  0  0  0  0  0  0
    1.3709   -5.3517   34.3214 C   0  0  0  0  0  0  0  0  0  0  0  0
    0.4409   -6.0534   33.4363 N   0  0  0  0  0  0  0  0  0  0  0  0
    0.5265   -6.0483   32.0426 C   0  0  0  0  0  0  0  0  0  0  0  0
    1.4432   -5.1253   31.2595 C   0  0  0  0  0  0  0  0  0  0  0  0
    0.6953   -3.9028   30.7019 C   0  0  0  0  0  0  0  0  0  0  0  0
    0.2892   -3.0100   31.8027 N   0  0  0  0  0  0  0  0  0  0  0  0
   -1.1924   -2.2064   31.6450 S   0  0  0  0  0  0  0  0  0  0  0  0
   -2.1795   -3.2193   31.3303 O   0  0  0  0  0  0  0  0  0  0  0  0
   -1.3243   -1.3675   32.8138 O   0  0  0  0  0  0  0  0  0  0  0  0
   -1.1337   -1.1257   30.2760 C   0  0  0  0  0  0  0  0  0  0  0  0
   -1.4741   -1.5088   28.9946 C   0  0  0  0  0  0  0  0  0  0  0  0
   -1.3006   -0.1841   27.9255 S   0  0  0  0  0  0  0  0  0  0  0  0
   -0.7525    0.7802   29.2213 C   0  0  0  0  0  0  0  0  0  0  0  0
   -0.6931    0.1949   30.3979 N   0  0  0  0  0  0  0  0  0  0  0  0
   -0.2425   -6.8827   31.3328 C   0  0  0  0  0  0  0  0  0  0  0  0
   -1.1523   -7.8127   31.9966 C   0  0  0  0  0  0  0  0  0  0  0  0
   -1.8362   -8.5557   31.3055 O   0  0  0  0  0  0  0  0  0  0  0  0
   -1.1706   -7.7631   33.3517 N   0  0  0  0  0  0  0  0  0  0  0  0
   -0.4498   -6.8981   34.1234 C   0  0  0  0  0  0  0  0  0  0  0  0
   -0.5748   -6.8969   35.3468 O   0  0  0  0  0  0  0  0  0  0  0  0
    2.7467   -5.9645   36.3104 N   0  0  0  0  0  0  0  0  0  0  0  0
    3.6822   -6.5251   37.2449 C   0  0  0  0  0  0  0  0  0  0  0  0
    3.0009   -7.0525   38.4800 C   0  0  0  0  0  0  0  0  0  0  0  0
    3.6899   -7.0664   39.7016 C   0  0  0  0  0  0  0  0  0  0  0  0
    3.0908   -7.5860   40.8515 C   0  0  0  0  0  0  0  0  0  0  0  0
    1.7999   -8.1053   40.7940 C   0  0  0  0  0  0  0  0  0  0  0  0
    1.1117   -8.1152   39.5849 C   0  0  0  0  0  0  0  0  0  0  0  0
    1.7096   -7.6016   38.4340 C   0  0  0  0  0  0  0  0  0  0  0  0
    0.7990   -4.9109   35.1453 H   0  0  0  0  0  0  0  0  0  0  0  0
    1.9009   -4.5406   33.8207 H   0  0  0  0  0  0  0  0  0  0  0  0
    2.3162   -4.8175   31.8413 H   0  0  0  0  0  0  0  0  0  0  0  0
    1.8601   -5.6790   30.4068 H   0  0  0  0  0  0  0  0  0  0  0  0
    1.3576   -3.3398   30.0353 H   0  0  0  0  0  0  0  0  0  0  0  0
   -0.1639   -4.2312   30.1081 H   0  0  0  0  0  0  0  0  0  0  0  0
    0.2527   -3.4514   32.7215 H   0  0  0  0  0  0  0  0  0  0  0  0
   -1.8309   -2.4647   28.6416 H   0  0  0  0  0  0  0  0  0  0  0  0
   -0.4725    1.8159   29.0727 H   0  0  0  0  0  0  0  0  0  0  0  0
   -0.2308   -6.9304   30.2517 H   0  0  0  0  0  0  0  0  0  0  0  0
   -1.7055   -8.4675   33.8483 H   0  0  0  0  0  0  0  0  0  0  0  0
    2.3061   -5.0772   36.5224 H   0  0  0  0  0  0  0  0  0  0  0  0
    4.3870   -5.7275   37.5015 H   0  0  0  0  0  0  0  0  0  0  0  0
    4.2264   -7.3363   36.7506 H   0  0  0  0  0  0  0  0  0  0  0  0
    4.7012   -6.6717   39.7681 H   0  0  0  0  0  0  0  0  0  0  0  0
    3.6328   -7.5864   41.7936 H   0  0  0  0  0  0  0  0  0  0  0  0
    1.3331   -8.5129   41.6862 H   0  0  0  0  0  0  0  0  0  0  0  0
    0.1160   -8.5473   39.5241 H   0  0  0  0  0  0  0  0  0  0  0  0
    1.1525   -7.6543   37.4992 H   0  0  0  0  0  0  0  0  0  0  0  0
  1  2  2  0
  2  3  1  0
  3  4  1  0
  4  5  1  0
  5  6  1  0
  6  7  1  0
  7  8  1  0
  8  9  1  0
  9 10  2  0
  9 11  2  0
  9 12  1  0
 12 13  2  0
 13 14  1  0
 14 15  1  0
 15 16  2  0
  5 17  2  0
 17 18  1  0
 18 19  2  0
 18 20  1  0
 20 21  1  0
 21 22  2  0
  2 23  1  0
 23 24  1  0
 24 25  1  0
 25 26  2  0
 26 27  1  0
 27 28  2  0
 28 29  1  0
 29 30  2  0
 21  4  1  0
 30 25  1  0
 16 12  1  0
  3 31  1  0
  3 32  1  0
  6 33  1  0
  6 34  1  0
  7 35  1  0
  7 36  1  0
  8 37  1  0
 13 38  1  0
 15 39  1  0
 17 40  1  0
 20 41  1  0
 23 42  1  0
 24 43  1  0
 24 44  1  0
 26 45  1  0
 27 46  1  0
 28 47  1  0
 29 48  1  0
 30 49  1  0
M  END
>  <Energy>  (272) 
-33.986914380589575

>  <compound_id>  (272) 
4028

>  <target_id>  (272) 
1

>  <reference_id>  (272) 
187

>  <inspiration_ids>  (272) 
[140, 187]

>  <energy_score>  (272) 
-296.92613664634933

>  <distance_score>  (272) 
0.5441357729399401

>  <path>  (272) 
/opt/xchem-fragalysis-2/maxwin/BulkDock/SCRATCH/505735/C4028-P187/C4028-P187.minimised.mol

>  <scratch_subdir>  (272) 
/opt/xchem-fragalysis-2/maxwin/BulkDock/SCRATCH/505735/C4028-P187

>  <fragmenstein_runtime>  (272) 
3.8759071826934814

>  <fragmenstein_outcome>  (272) 
acceptable

>  <fragmenstein_mode>  (272) 
expansion

>  <fragmenstein_error>  (272) 


$$$$
C4029-P140
     RDKit          3D

 54 56  0  0  0  0  0  0  0  0999 V2000
   -1.8054    1.6120   27.1358 N   0  0  0  0  0  0  0  0  0  0  0  0
   -1.5006    0.6868   28.1220 C   0  0  0  0  0  0  0  0  0  0  0  0
   -1.6782   -0.6686   27.8929 C   0  0  0  0  0  0  0  0  0  0  0  0
   -1.5291   -1.5696   28.9418 C   0  0  0  0  0  0  0  0  0  0  0  0
   -1.2258   -1.0717   30.1979 C   0  0  0  0  0  0  0  0  0  0  0  0
   -1.2242   -2.0960   31.6194 S   0  0  0  0  0  0  0  0  0  0  0  0
   -1.2629   -1.2379   32.7820 O   0  0  0  0  0  0  0  0  0  0  0  0
   -2.1800   -3.1661   31.4268 O   0  0  0  0  0  0  0  0  0  0  0  0
    0.3081   -2.7530   31.6014 N   0  0  0  0  0  0  0  0  0  0  0  0
    0.7152   -3.7103   30.5824 C   0  0  0  0  0  0  0  0  0  0  0  0
    1.3916   -4.9161   31.2532 C   0  0  0  0  0  0  0  0  0  0  0  0
    0.4298   -5.8120   32.0166 C   0  0  0  0  0  0  0  0  0  0  0  0
   -0.3069   -6.6634   31.2923 C   0  0  0  0  0  0  0  0  0  0  0  0
   -1.2091   -7.6071   31.9438 C   0  0  0  0  0  0  0  0  0  0  0  0
   -1.8212   -8.4139   31.2578 O   0  0  0  0  0  0  0  0  0  0  0  0
   -1.2927   -7.5257   33.2926 N   0  0  0  0  0  0  0  0  0  0  0  0
   -0.5663   -6.6830   34.0795 C   0  0  0  0  0  0  0  0  0  0  0  0
   -0.6754   -6.7419   35.3040 O   0  0  0  0  0  0  0  0  0  0  0  0
    0.3109   -5.8174   33.4099 N   0  0  0  0  0  0  0  0  0  0  0  0
    1.1800   -5.0605   34.3065 C   0  0  0  0  0  0  0  0  0  0  0  0
    2.2815   -6.0186   34.8369 C   0  0  0  0  0  0  0  0  0  0  0  0
    2.6647   -6.9373   34.2230 O   0  0  0  0  0  0  0  0  0  0  0  0
    2.7247   -5.4803   36.2237 N   0  0  0  0  0  0  0  0  0  0  0  0
    3.6594   -6.0143   37.1775 C   0  0  0  0  0  0  0  0  0  0  0  0
    3.0075   -6.6935   38.3553 C   0  0  0  0  0  0  0  0  0  0  0  0
    3.7866   -6.9734   39.4912 C   0  0  0  0  0  0  0  0  0  0  0  0
    3.2408   -7.6406   40.5906 C   0  0  0  0  0  0  0  0  0  0  0  0
    1.9091   -8.0412   40.5692 C   0  0  0  0  0  0  0  0  0  0  0  0
    1.1257   -7.7757   39.4505 C   0  0  0  0  0  0  0  0  0  0  0  0
    1.6703   -7.1163   38.3470 C   0  0  0  0  0  0  0  0  0  0  0  0
   -1.0414    0.2886   30.3449 C   0  0  0  0  0  0  0  0  0  0  0  0
   -1.1549    1.1709   29.3251 N   0  0  0  0  0  0  0  0  0  0  0  0
   -1.6294    2.5476   27.4927 H   0  0  0  0  0  0  0  0  0  0  0  0
   -1.3424    1.4149   26.2652 H   0  0  0  0  0  0  0  0  0  0  0  0
   -2.0221   -1.0152   26.9260 H   0  0  0  0  0  0  0  0  0  0  0  0
   -1.7299   -2.6223   28.7755 H   0  0  0  0  0  0  0  0  0  0  0  0
    1.0056   -2.2384   32.1359 H   0  0  0  0  0  0  0  0  0  0  0  0
   -0.1291   -4.0445   29.9722 H   0  0  0  0  0  0  0  0  0  0  0  0
    1.4294   -3.2178   29.9135 H   0  0  0  0  0  0  0  0  0  0  0  0
    1.8583   -5.5116   30.4562 H   0  0  0  0  0  0  0  0  0  0  0  0
    2.2316   -4.5935   31.8755 H   0  0  0  0  0  0  0  0  0  0  0  0
   -0.2577   -6.7265   30.2135 H   0  0  0  0  0  0  0  0  0  0  0  0
   -1.8170   -8.2438   33.7754 H   0  0  0  0  0  0  0  0  0  0  0  0
    1.6452   -4.2048   33.8148 H   0  0  0  0  0  0  0  0  0  0  0  0
    0.5795   -4.6769   35.1392 H   0  0  0  0  0  0  0  0  0  0  0  0
    2.2380   -4.6139   36.4219 H   0  0  0  0  0  0  0  0  0  0  0  0
    4.2733   -5.1750   37.5200 H   0  0  0  0  0  0  0  0  0  0  0  0
    4.2945   -6.7377   36.6554 H   0  0  0  0  0  0  0  0  0  0  0  0
    4.8336   -6.6799   39.5245 H   0  0  0  0  0  0  0  0  0  0  0  0
    3.8571   -7.8589   41.4585 H   0  0  0  0  0  0  0  0  0  0  0  0
    1.4827   -8.5836   41.4092 H   0  0  0  0  0  0  0  0  0  0  0  0
    0.0957   -8.1213   39.4230 H   0  0  0  0  0  0  0  0  0  0  0  0
    1.0331   -6.9628   37.4794 H   0  0  0  0  0  0  0  0  0  0  0  0
   -0.8133    0.7411   31.3059 H   0  0  0  0  0  0  0  0  0  0  0  0
  1  2  1  0
  2  3  2  0
  3  4  1  0
  4  5  2  0
  5  6  1  0
  6  7  2  0
  6  8  2  0
  6  9  1  0
  9 10  1  0
 10 11  1  0
 11 12  1  0
 12 13  2  0
 13 14  1  0
 14 15  2  0
 14 16  1  0
 16 17  1  0
 17 18  2  0
 17 19  1  0
 19 20  1  0
 20 21  1  0
 21 22  2  0
 21 23  1  0
 23 24  1  0
 24 25  1  0
 25 26  2  0
 26 27  1  0
 27 28  2  0
 28 29  1  0
 29 30  2  0
  5 31  1  0
 31 32  2  0
 32  2  1  0
 19 12  1  0
 30 25  1  0
  1 33  1  0
  1 34  1  0
  3 35  1  0
  4 36  1  0
  9 37  1  0
 10 38  1  0
 10 39  1  0
 11 40  1  0
 11 41  1  0
 13 42  1  0
 16 43  1  0
 20 44  1  0
 20 45  1  0
 23 46  1  0
 24 47  1  0
 24 48  1  0
 26 49  1  0
 27 50  1  0
 28 51  1  0
 29 52  1  0
 30 53  1  0
 31 54  1  0
M  END
>  <Energy>  (273) 
-137.82256458691461

>  <compound_id>  (273) 
4029

>  <target_id>  (273) 
1

>  <reference_id>  (273) 
140

>  <inspiration_ids>  (273) 
[140, 188]

>  <energy_score>  (273) 
-39.77958155904459

>  <distance_score>  (273) 
0.48160874846360757

>  <path>  (273) 
/opt/xchem-fragalysis-2/maxwin/BulkDock/SCRATCH/505735/C4029-P140/C4029-P140.minimised.mol

>  <scratch_subdir>  (273) 
/opt/xchem-fragalysis-2/maxwin/BulkDock/SCRATCH/505735/C4029-P140

>  <fragmenstein_runtime>  (273) 
5.412784814834595

>  <fragmenstein_outcome>  (273) 
acceptable

>  <fragmenstein_mode>  (273) 
expansion

>  <fragmenstein_error>  (273) 


$$$$
C4029-P188
     RDKit          3D

 54 56  0  0  0  0  0  0  0  0999 V2000
   -1.7352    1.6463   27.1273 N   0  0  0  0  0  0  0  0  0  0  0  0
   -1.4324    0.6987   28.0927 C   0  0  0  0  0  0  0  0  0  0  0  0
   -1.6279   -0.6497   27.8455 C   0  0  0  0  0  0  0  0  0  0  0  0
   -1.5039   -1.5689   28.8824 C   0  0  0  0  0  0  0  0  0  0  0  0
   -1.1831   -1.0946   30.1416 C   0  0  0  0  0  0  0  0  0  0  0  0
   -1.1990   -2.1229   31.5583 S   0  0  0  0  0  0  0  0  0  0  0  0
   -1.2059   -1.2665   32.7233 O   0  0  0  0  0  0  0  0  0  0  0  0
   -2.1827   -3.1697   31.3802 O   0  0  0  0  0  0  0  0  0  0  0  0
    0.3149   -2.8140   31.5074 N   0  0  0  0  0  0  0  0  0  0  0  0
    0.6647   -3.7842   30.4775 C   0  0  0  0  0  0  0  0  0  0  0  0
    1.3764   -4.9791   31.1265 C   0  0  0  0  0  0  0  0  0  0  0  0
    0.4644   -5.8761   31.9528 C   0  0  0  0  0  0  0  0  0  0  0  0
   -0.2756   -6.7743   31.2915 C   0  0  0  0  0  0  0  0  0  0  0  0
   -1.1424   -7.7074   32.0089 C   0  0  0  0  0  0  0  0  0  0  0  0
   -1.8334   -8.4847   31.3634 O   0  0  0  0  0  0  0  0  0  0  0  0
   -1.0938   -7.6397   33.3648 N   0  0  0  0  0  0  0  0  0  0  0  0
   -0.4028   -6.7075   34.0877 C   0  0  0  0  0  0  0  0  0  0  0  0
   -0.4782   -6.6877   35.3162 O   0  0  0  0  0  0  0  0  0  0  0  0
    0.3964   -5.8244   33.3484 N   0  0  0  0  0  0  0  0  0  0  0  0
    1.1711   -4.8721   34.1418 C   0  0  0  0  0  0  0  0  0  0  0  0
    2.5164   -5.5007   34.5591 C   0  0  0  0  0  0  0  0  0  0  0  0
    3.4853   -5.3715   33.9192 O   0  0  0  0  0  0  0  0  0  0  0  0
    2.2876   -6.2547   35.8935 N   0  0  0  0  0  0  0  0  0  0  0  0
    3.1769   -7.0807   36.6628 C   0  0  0  0  0  0  0  0  0  0  0  0
    2.7129   -7.2948   38.0781 C   0  0  0  0  0  0  0  0  0  0  0  0
    3.6022   -7.1388   39.1518 C   0  0  0  0  0  0  0  0  0  0  0  0
    3.1892   -7.3936   40.4627 C   0  0  0  0  0  0  0  0  0  0  0  0
    1.8842   -7.8082   40.7171 C   0  0  0  0  0  0  0  0  0  0  0  0
    0.9938   -7.9733   39.6612 C   0  0  0  0  0  0  0  0  0  0  0  0
    1.4057   -7.7244   38.3513 C   0  0  0  0  0  0  0  0  0  0  0  0
   -0.9432    0.2543   30.2985 C   0  0  0  0  0  0  0  0  0  0  0  0
   -1.0484    1.1529   29.2936 N   0  0  0  0  0  0  0  0  0  0  0  0
   -1.5932    2.5715   27.5288 H   0  0  0  0  0  0  0  0  0  0  0  0
   -1.2179    1.5080   26.2767 H   0  0  0  0  0  0  0  0  0  0  0  0
   -1.9911   -0.9724   26.8791 H   0  0  0  0  0  0  0  0  0  0  0  0
   -1.7355   -2.6133   28.7033 H   0  0  0  0  0  0  0  0  0  0  0  0
    1.0501   -2.2825   31.9722 H   0  0  0  0  0  0  0  0  0  0  0  0
   -0.2126   -4.1295   29.9222 H   0  0  0  0  0  0  0  0  0  0  0  0
    1.3398   -3.3009   29.7630 H   0  0  0  0  0  0  0  0  0  0  0  0
    1.8083   -5.5813   30.3149 H   0  0  0  0  0  0  0  0  0  0  0  0
    2.2418   -4.6418   31.7046 H   0  0  0  0  0  0  0  0  0  0  0  0
   -0.2725   -6.8702   30.2142 H   0  0  0  0  0  0  0  0  0  0  0  0
   -1.6055   -8.3379   33.8947 H   0  0  0  0  0  0  0  0  0  0  0  0
    1.3723   -3.9524   33.5898 H   0  0  0  0  0  0  0  0  0  0  0  0
    0.6072   -4.5594   35.0282 H   0  0  0  0  0  0  0  0  0  0  0  0
    1.3329   -6.0932   36.2171 H   0  0  0  0  0  0  0  0  0  0  0  0
    4.1653   -6.6099   36.6287 H   0  0  0  0  0  0  0  0  0  0  0  0
    3.2605   -8.0447   36.1496 H   0  0  0  0  0  0  0  0  0  0  0  0
    4.6273   -6.8201   38.9755 H   0  0  0  0  0  0  0  0  0  0  0  0
    3.8877   -7.2670   41.2858 H   0  0  0  0  0  0  0  0  0  0  0  0
    1.5627   -8.0087   41.7353 H   0  0  0  0  0  0  0  0  0  0  0  0
   -0.0183   -8.3234   39.8476 H   0  0  0  0  0  0  0  0  0  0  0  0
    0.6943   -7.9044   37.5454 H   0  0  0  0  0  0  0  0  0  0  0  0
   -0.6761    0.6858   31.2590 H   0  0  0  0  0  0  0  0  0  0  0  0
  1  2  1  0
  2  3  2  0
  3  4  1  0
  4  5  2  0
  5  6  1  0
  6  7  2  0
  6  8  2  0
  6  9  1  0
  9 10  1  0
 10 11  1  0
 11 12  1  0
 12 13  2  0
 13 14  1  0
 14 15  2  0
 14 16  1  0
 16 17  1  0
 17 18  2  0
 17 19  1  0
 19 20  1  0
 20 21  1  0
 21 22  2  0
 21 23  1  0
 23 24  1  0
 24 25  1  0
 25 26  2  0
 26 27  1  0
 27 28  2  0
 28 29  1  0
 29 30  2  0
  5 31  1  0
 31 32  2  0
 32  2  1  0
 19 12  1  0
 30 25  1  0
  1 33  1  0
  1 34  1  0
  3 35  1  0
  4 36  1  0
  9 37  1  0
 10 38  1  0
 10 39  1  0
 11 40  1  0
 11 41  1  0
 13 42  1  0
 16 43  1  0
 20 44  1  0
 20 45  1  0
 23 46  1  0
 24 47  1  0
 24 48  1  0
 26 49  1  0
 27 50  1  0
 28 51  1  0
 29 52  1  0
 30 53  1  0
 31 54  1  0
M  END
>  <Energy>  (274) 
-142.48424098891067

>  <compound_id>  (274) 
4029

>  <target_id>  (274) 
1

>  <reference_id>  (274) 
188

>  <inspiration_ids>  (274) 
[140, 188]

>  <energy_score>  (274) 
-44.4412579610386

>  <distance_score>  (274) 
0.6841001828251104

>  <path>  (274) 
/opt/xchem-fragalysis-2/maxwin/BulkDock/SCRATCH/505735/C4029-P188/C4029-P188.minimised.mol

>  <scratch_subdir>  (274) 
/opt/xchem-fragalysis-2/maxwin/BulkDock/SCRATCH/505735/C4029-P188

>  <fragmenstein_runtime>  (274) 
7.153015851974487

>  <fragmenstein_outcome>  (274) 
acceptable

>  <fragmenstein_mode>  (274) 
expansion

>  <fragmenstein_error>  (274) 


$$$$
C4029-P140
     RDKit          3D

 54 56  0  0  0  0  0  0  0  0999 V2000
   -1.6134    0.9600   26.9124 N   0  0  0  0  0  0  0  0  0  0  0  0
   -1.3754    0.2459   28.0750 C   0  0  0  0  0  0  0  0  0  0  0  0
   -0.9626    0.8698   29.2396 C   0  0  0  0  0  0  0  0  0  0  0  0
   -0.8546    0.1129   30.4045 C   0  0  0  0  0  0  0  0  0  0  0  0
   -1.1533   -1.2447   30.3454 C   0  0  0  0  0  0  0  0  0  0  0  0
   -1.1484   -2.2538   31.7764 S   0  0  0  0  0  0  0  0  0  0  0  0
   -2.0823   -3.3422   31.5797 O   0  0  0  0  0  0  0  0  0  0  0  0
   -1.2120   -1.3840   32.9287 O   0  0  0  0  0  0  0  0  0  0  0  0
    0.3996   -2.8803   31.7694 N   0  0  0  0  0  0  0  0  0  0  0  0
    0.8457   -3.7875   30.7185 C   0  0  0  0  0  0  0  0  0  0  0  0
    1.4913   -5.0284   31.3467 C   0  0  0  0  0  0  0  0  0  0  0  0
    0.4947   -5.9038   32.0817 C   0  0  0  0  0  0  0  0  0  0  0  0
   -0.2627   -6.7190   31.3379 C   0  0  0  0  0  0  0  0  0  0  0  0
   -1.2112   -7.6292   31.9696 C   0  0  0  0  0  0  0  0  0  0  0  0
   -1.8426   -8.4080   31.2690 O   0  0  0  0  0  0  0  0  0  0  0  0
   -1.3122   -7.5511   33.3180 N   0  0  0  0  0  0  0  0  0  0  0  0
   -0.5649   -6.7434   34.1219 C   0  0  0  0  0  0  0  0  0  0  0  0
   -0.6930   -6.8032   35.3445 O   0  0  0  0  0  0  0  0  0  0  0  0
    0.3537   -5.9095   33.4714 N   0  0  0  0  0  0  0  0  0  0  0  0
    1.2314   -5.1796   34.3810 C   0  0  0  0  0  0  0  0  0  0  0  0
    2.3064   -6.1615   34.9192 C   0  0  0  0  0  0  0  0  0  0  0  0
    2.6474   -7.1122   34.3292 O   0  0  0  0  0  0  0  0  0  0  0  0
    2.7868   -5.5988   36.2838 N   0  0  0  0  0  0  0  0  0  0  0  0
    3.7124   -6.1385   37.2424 C   0  0  0  0  0  0  0  0  0  0  0  0
    3.0407   -6.7751   38.4326 C   0  0  0  0  0  0  0  0  0  0  0  0
    3.7988   -7.0106   39.5917 C   0  0  0  0  0  0  0  0  0  0  0  0
    3.2326   -7.6367   40.7045 C   0  0  0  0  0  0  0  0  0  0  0  0
    1.9015   -8.0395   40.6738 C   0  0  0  0  0  0  0  0  0  0  0  0
    1.1391   -7.8189   39.5313 C   0  0  0  0  0  0  0  0  0  0  0  0
    1.7046   -7.2024   38.4140 C   0  0  0  0  0  0  0  0  0  0  0  0
   -1.5401   -1.7888   29.1427 C   0  0  0  0  0  0  0  0  0  0  0  0
   -1.6507   -1.0619   28.0165 N   0  0  0  0  0  0  0  0  0  0  0  0
   -0.8282    1.5386   26.6534 H   0  0  0  0  0  0  0  0  0  0  0  0
   -1.8363    0.2427   26.2142 H   0  0  0  0  0  0  0  0  0  0  0  0
   -0.7613    1.9349   29.2425 H   0  0  0  0  0  0  0  0  0  0  0  0
   -0.5666    0.5884   31.3375 H   0  0  0  0  0  0  0  0  0  0  0  0
    1.0788   -2.3401   32.3027 H   0  0  0  0  0  0  0  0  0  0  0  0
    1.5823   -3.2641   30.0995 H   0  0  0  0  0  0  0  0  0  0  0  0
    0.0235   -4.0893   30.0629 H   0  0  0  0  0  0  0  0  0  0  0  0
    1.9372   -5.6100   30.5293 H   0  0  0  0  0  0  0  0  0  0  0  0
    2.3401   -4.7507   31.9784 H   0  0  0  0  0  0  0  0  0  0  0  0
   -0.2012   -6.7742   30.2592 H   0  0  0  0  0  0  0  0  0  0  0  0
   -1.8654   -8.2551   33.7884 H   0  0  0  0  0  0  0  0  0  0  0  0
    1.7209   -4.3311   33.9005 H   0  0  0  0  0  0  0  0  0  0  0  0
    0.6306   -4.7864   35.2091 H   0  0  0  0  0  0  0  0  0  0  0  0
    2.2185   -4.7993   36.5394 H   0  0  0  0  0  0  0  0  0  0  0  0
    4.3465   -5.3075   37.5680 H   0  0  0  0  0  0  0  0  0  0  0  0
    4.3277   -6.8878   36.7337 H   0  0  0  0  0  0  0  0  0  0  0  0
    4.8447   -6.7144   39.6339 H   0  0  0  0  0  0  0  0  0  0  0  0
    3.8325   -7.8212   41.5916 H   0  0  0  0  0  0  0  0  0  0  0  0
    1.4601   -8.5492   41.5262 H   0  0  0  0  0  0  0  0  0  0  0  0
    0.1103   -8.1680   39.4965 H   0  0  0  0  0  0  0  0  0  0  0  0
    1.0841   -7.0880   37.5284 H   0  0  0  0  0  0  0  0  0  0  0  0
   -1.8057   -2.8333   29.0279 H   0  0  0  0  0  0  0  0  0  0  0  0
  1  2  1  0
  2  3  2  0
  3  4  1  0
  4  5  2  0
  5  6  1  0
  6  7  2  0
  6  8  2  0
  6  9  1  0
  9 10  1  0
 10 11  1  0
 11 12  1  0
 12 13  2  0
 13 14  1  0
 14 15  2  0
 14 16  1  0
 16 17  1  0
 17 18  2  0
 17 19  1  0
 19 20  1  0
 20 21  1  0
 21 22  2  0
 21 23  1  0
 23 24  1  0
 24 25  1  0
 25 26  2  0
 26 27  1  0
 27 28  2  0
 28 29  1  0
 29 30  2  0
  5 31  1  0
 31 32  2  0
 32  2  1  0
 19 12  1  0
 30 25  1  0
  1 33  1  0
  1 34  1  0
  3 35  1  0
  4 36  1  0
  9 37  1  0
 10 38  1  0
 10 39  1  0
 11 40  1  0
 11 41  1  0
 13 42  1  0
 16 43  1  0
 20 44  1  0
 20 45  1  0
 23 46  1  0
 24 47  1  0
 24 48  1  0
 26 49  1  0
 27 50  1  0
 28 51  1  0
 29 52  1  0
 30 53  1  0
 31 54  1  0
M  END
>  <Energy>  (275) 
-139.14550831992022

>  <compound_id>  (275) 
4029

>  <target_id>  (275) 
1

>  <reference_id>  (275) 
140

>  <inspiration_ids>  (275) 
[140, 189]

>  <energy_score>  (275) 
-41.10252529204982

>  <distance_score>  (275) 
0.4200965819117109

>  <path>  (275) 
/opt/xchem-fragalysis-2/maxwin/BulkDock/SCRATCH/505735/C4029-P140/C4029-P140.minimised.mol

>  <scratch_subdir>  (275) 
/opt/xchem-fragalysis-2/maxwin/BulkDock/SCRATCH/505735/C4029-P140

>  <fragmenstein_runtime>  (275) 
7.504323244094849

>  <fragmenstein_outcome>  (275) 
acceptable

>  <fragmenstein_mode>  (275) 
expansion

>  <fragmenstein_error>  (275) 


$$$$
C4029-P189
     RDKit          3D

 54 56  0  0  0  0  0  0  0  0999 V2000
   -2.0360    0.8967   26.9723 N   0  0  0  0  0  0  0  0  0  0  0  0
   -1.7553    0.1715   28.1191 C   0  0  0  0  0  0  0  0  0  0  0  0
   -1.1845    0.7649   29.2331 C   0  0  0  0  0  0  0  0  0  0  0  0
   -0.9874   -0.0037   30.3795 C   0  0  0  0  0  0  0  0  0  0  0  0
   -1.3641   -1.3433   30.3557 C   0  0  0  0  0  0  0  0  0  0  0  0
   -1.2521   -2.3575   31.7809 S   0  0  0  0  0  0  0  0  0  0  0  0
   -2.1680   -3.4705   31.6382 O   0  0  0  0  0  0  0  0  0  0  0  0
   -1.2723   -1.4877   32.9351 O   0  0  0  0  0  0  0  0  0  0  0  0
    0.3047   -2.9537   31.6929 N   0  0  0  0  0  0  0  0  0  0  0  0
    0.7041   -3.8866   30.6464 C   0  0  0  0  0  0  0  0  0  0  0  0
    1.3744   -5.1171   31.2753 C   0  0  0  0  0  0  0  0  0  0  0  0
    0.4079   -6.0217   32.0210 C   0  0  0  0  0  0  0  0  0  0  0  0
   -0.3090   -6.8851   31.2904 C   0  0  0  0  0  0  0  0  0  0  0  0
   -1.2012   -7.8445   31.9359 C   0  0  0  0  0  0  0  0  0  0  0  0
   -1.7956   -8.6674   31.2510 O   0  0  0  0  0  0  0  0  0  0  0  0
   -1.2907   -7.7674   33.2852 N   0  0  0  0  0  0  0  0  0  0  0  0
   -0.5956   -6.9006   34.0758 C   0  0  0  0  0  0  0  0  0  0  0  0
   -0.7185   -6.9597   35.2988 O   0  0  0  0  0  0  0  0  0  0  0  0
    0.2705   -6.0215   33.4113 N   0  0  0  0  0  0  0  0  0  0  0  0
    1.1202   -5.2474   34.3108 C   0  0  0  0  0  0  0  0  0  0  0  0
    2.2245   -6.1962   34.8479 C   0  0  0  0  0  0  0  0  0  0  0  0
    2.6355   -7.0990   34.2284 O   0  0  0  0  0  0  0  0  0  0  0  0
    2.5688   -5.7233   36.2846 N   0  0  0  0  0  0  0  0  0  0  0  0
    3.5534   -6.2047   37.2148 C   0  0  0  0  0  0  0  0  0  0  0  0
    2.9378   -6.8744   38.4163 C   0  0  0  0  0  0  0  0  0  0  0  0
    3.6799   -6.9715   39.6041 C   0  0  0  0  0  0  0  0  0  0  0  0
    3.1584   -7.6286   40.7210 C   0  0  0  0  0  0  0  0  0  0  0  0
    1.8929   -8.2051   40.6631 C   0  0  0  0  0  0  0  0  0  0  0  0
    1.1505   -8.1290   39.4889 C   0  0  0  0  0  0  0  0  0  0  0  0
    1.6700   -7.4757   38.3708 C   0  0  0  0  0  0  0  0  0  0  0  0
   -1.9283   -1.8517   29.2086 C   0  0  0  0  0  0  0  0  0  0  0  0
   -2.1301   -1.1125   28.1002 N   0  0  0  0  0  0  0  0  0  0  0  0
   -1.2401    1.4308   26.6567 H   0  0  0  0  0  0  0  0  0  0  0  0
   -2.3519    0.1984   26.2941 H   0  0  0  0  0  0  0  0  0  0  0  0
   -0.9165    1.8151   29.2099 H   0  0  0  0  0  0  0  0  0  0  0  0
   -0.5667    0.4488   31.2726 H   0  0  0  0  0  0  0  0  0  0  0  0
    1.0049   -2.4089   32.1930 H   0  0  0  0  0  0  0  0  0  0  0  0
    1.4178   -3.3782   29.9890 H   0  0  0  0  0  0  0  0  0  0  0  0
   -0.1450   -4.1941   30.0277 H   0  0  0  0  0  0  0  0  0  0  0  0
    1.8283   -5.6939   30.4573 H   0  0  0  0  0  0  0  0  0  0  0  0
    2.2232   -4.8228   31.9000 H   0  0  0  0  0  0  0  0  0  0  0  0
   -0.2450   -6.9487   30.2128 H   0  0  0  0  0  0  0  0  0  0  0  0
   -1.8201   -8.4814   33.7658 H   0  0  0  0  0  0  0  0  0  0  0  0
    1.5834   -4.3900   33.8207 H   0  0  0  0  0  0  0  0  0  0  0  0
    0.5052   -4.8663   35.1337 H   0  0  0  0  0  0  0  0  0  0  0  0
    2.0861   -4.8542   36.4797 H   0  0  0  0  0  0  0  0  0  0  0  0
    4.1483   -5.3382   37.5215 H   0  0  0  0  0  0  0  0  0  0  0  0
    4.1995   -6.9181   36.6932 H   0  0  0  0  0  0  0  0  0  0  0  0
    4.6763   -6.5400   39.6676 H   0  0  0  0  0  0  0  0  0  0  0  0
    3.7436   -7.7011   41.6338 H   0  0  0  0  0  0  0  0  0  0  0  0
    1.4904   -8.7361   41.5220 H   0  0  0  0  0  0  0  0  0  0  0  0
    0.1785   -8.6131   39.4337 H   0  0  0  0  0  0  0  0  0  0  0  0
    1.0735   -7.4640   37.4610 H   0  0  0  0  0  0  0  0  0  0  0  0
   -2.2626   -2.8784   29.1300 H   0  0  0  0  0  0  0  0  0  0  0  0
  1  2  1  0
  2  3  2  0
  3  4  1  0
  4  5  2  0
  5  6  1  0
  6  7  2  0
  6  8  2  0
  6  9  1  0
  9 10  1  0
 10 11  1  0
 11 12  1  0
 12 13  2  0
 13 14  1  0
 14 15  2  0
 14 16  1  0
 16 17  1  0
 17 18  2  0
 17 19  1  0
 19 20  1  0
 20 21  1  0
 21 22  2  0
 21 23  1  0
 23 24  1  0
 24 25  1  0
 25 26  2  0
 26 27  1  0
 27 28  2  0
 28 29  1  0
 29 30  2  0
  5 31  1  0
 31 32  2  0
 32  2  1  0
 19 12  1  0
 30 25  1  0
  1 33  1  0
  1 34  1  0
  3 35  1  0
  4 36  1  0
  9 37  1  0
 10 38  1  0
 10 39  1  0
 11 40  1  0
 11 41  1  0
 13 42  1  0
 16 43  1  0
 20 44  1  0
 20 45  1  0
 23 46  1  0
 24 47  1  0
 24 48  1  0
 26 49  1  0
 27 50  1  0
 28 51  1  0
 29 52  1  0
 30 53  1  0
 31 54  1  0
M  END
>  <Energy>  (276) 
-138.92558817867149

>  <compound_id>  (276) 
4029

>  <target_id>  (276) 
1

>  <reference_id>  (276) 
189

>  <inspiration_ids>  (276) 
[140, 189]

>  <energy_score>  (276) 
-40.88260515080177

>  <distance_score>  (276) 
0.4220533983138974

>  <path>  (276) 
/opt/xchem-fragalysis-2/maxwin/BulkDock/SCRATCH/505735/C4029-P189/C4029-P189.minimised.mol

>  <scratch_subdir>  (276) 
/opt/xchem-fragalysis-2/maxwin/BulkDock/SCRATCH/505735/C4029-P189

>  <fragmenstein_runtime>  (276) 
6.018104553222656

>  <fragmenstein_outcome>  (276) 
acceptable

>  <fragmenstein_mode>  (276) 
expansion

>  <fragmenstein_error>  (276) 


$$$$
C274-P140
     RDKit          3D

 60 62  0  0  0  0  0  0  0  0999 V2000
   -6.0739   -1.6736   33.2866 C   0  0  0  0  0  0  0  0  0  0  0  0
   -4.9795   -0.6343   33.4115 C   0  0  0  0  0  0  0  0  0  0  0  0
   -3.7604   -1.2021   32.9218 O   0  0  0  0  0  0  0  0  0  0  0  0
   -2.6743   -0.4045   33.0737 C   0  0  0  0  0  0  0  0  0  0  0  0
   -2.6773    0.7723   33.3974 O   0  0  0  0  0  0  0  0  0  0  0  0
   -1.4456   -1.2048   32.8887 C   0  0  0  0  0  0  0  0  0  0  0  0
   -1.3153   -2.1263   31.9195 C   0  0  0  0  0  0  0  0  0  0  0  0
   -0.2238   -3.1728   31.9205 C   0  0  0  0  0  0  0  0  0  0  0  0
    0.6606   -3.1611   30.6680 C   0  0  0  0  0  0  0  0  0  0  0  0
    0.3965   -4.3361   29.7350 C   0  0  0  0  0  0  0  0  0  0  0  0
    0.5064   -5.7030   30.4178 C   0  0  0  0  0  0  0  0  0  0  0  0
   -0.0689   -5.7578   31.8391 C   0  0  0  0  0  0  0  0  0  0  0  0
   -0.9343   -4.5197   32.1108 C   0  0  0  0  0  0  0  0  0  0  0  0
    1.0775   -5.8169   32.8337 C   0  0  0  0  0  0  0  0  0  0  0  0
    0.5782   -5.8985   34.1850 N   0  0  0  0  0  0  0  0  0  0  0  0
    1.4802   -5.5146   35.2555 C   0  0  0  0  0  0  0  0  0  0  0  0
    2.5252   -6.6259   35.5024 C   0  0  0  0  0  0  0  0  0  0  0  0
    2.7094   -7.5343   34.7907 O   0  0  0  0  0  0  0  0  0  0  0  0
    3.1339   -6.2967   36.8867 N   0  0  0  0  0  0  0  0  0  0  0  0
    4.0152   -7.0563   37.7182 C   0  0  0  0  0  0  0  0  0  0  0  0
    3.2839   -7.4060   38.9850 C   0  0  0  0  0  0  0  0  0  0  0  0
    3.9602   -7.4160   40.2082 C   0  0  0  0  0  0  0  0  0  0  0  0
    3.2843   -7.7509   41.3823 C   0  0  0  0  0  0  0  0  0  0  0  0
    1.9306   -8.0808   41.3469 C   0  0  0  0  0  0  0  0  0  0  0  0
    1.2484   -8.0843   40.1368 C   0  0  0  0  0  0  0  0  0  0  0  0
    1.9218   -7.7599   38.9628 C   0  0  0  0  0  0  0  0  0  0  0  0
   -0.4376   -6.7861   34.4898 C   0  0  0  0  0  0  0  0  0  0  0  0
   -0.7745   -7.0647   35.6358 O   0  0  0  0  0  0  0  0  0  0  0  0
   -1.0616   -7.3602   33.4151 N   0  0  0  0  0  0  0  0  0  0  0  0
   -0.9127   -7.0195   32.0924 C   0  0  0  0  0  0  0  0  0  0  0  0
   -1.4918   -7.6554   31.2122 O   0  0  0  0  0  0  0  0  0  0  0  0
   -7.0352   -1.2702   33.6156 H   0  0  0  0  0  0  0  0  0  0  0  0
   -6.1671   -2.0186   32.2526 H   0  0  0  0  0  0  0  0  0  0  0  0
   -5.8356   -2.5518   33.8940 H   0  0  0  0  0  0  0  0  0  0  0  0
   -4.8608   -0.3511   34.4637 H   0  0  0  0  0  0  0  0  0  0  0  0
   -5.2361    0.2512   32.8269 H   0  0  0  0  0  0  0  0  0  0  0  0
   -0.6968   -1.0561   33.6572 H   0  0  0  0  0  0  0  0  0  0  0  0
   -2.0941   -2.2182   31.1625 H   0  0  0  0  0  0  0  0  0  0  0  0
    0.4274   -2.9923   32.7863 H   0  0  0  0  0  0  0  0  0  0  0  0
    0.5520   -2.2195   30.1160 H   0  0  0  0  0  0  0  0  0  0  0  0
    1.7123   -3.2039   30.9807 H   0  0  0  0  0  0  0  0  0  0  0  0
    1.1009   -4.2935   28.8960 H   0  0  0  0  0  0  0  0  0  0  0  0
   -0.6028   -4.2208   29.3002 H   0  0  0  0  0  0  0  0  0  0  0  0
    1.5668   -5.9763   30.4273 H   0  0  0  0  0  0  0  0  0  0  0  0
    0.0254   -6.4475   29.7815 H   0  0  0  0  0  0  0  0  0  0  0  0
   -1.3810   -4.5508   33.1106 H   0  0  0  0  0  0  0  0  0  0  0  0
   -1.7721   -4.5576   31.4191 H   0  0  0  0  0  0  0  0  0  0  0  0
    1.7311   -4.9422   32.7491 H   0  0  0  0  0  0  0  0  0  0  0  0
    1.6934   -6.6940   32.6532 H   0  0  0  0  0  0  0  0  0  0  0  0
    1.9915   -4.5845   34.9877 H   0  0  0  0  0  0  0  0  0  0  0  0
    0.8976   -5.3498   36.1686 H   0  0  0  0  0  0  0  0  0  0  0  0
    2.8134   -5.3836   37.1890 H   0  0  0  0  0  0  0  0  0  0  0  0
    4.8916   -6.4331   37.9198 H   0  0  0  0  0  0  0  0  0  0  0  0
    4.3215   -7.9650   37.1915 H   0  0  0  0  0  0  0  0  0  0  0  0
    5.0174   -7.1681   40.2605 H   0  0  0  0  0  0  0  0  0  0  0  0
    3.8159   -7.7638   42.3304 H   0  0  0  0  0  0  0  0  0  0  0  0
    1.4114   -8.3592   42.2600 H   0  0  0  0  0  0  0  0  0  0  0  0
    0.2037   -8.3823   40.0992 H   0  0  0  0  0  0  0  0  0  0  0  0
    1.3682   -7.8147   38.0275 H   0  0  0  0  0  0  0  0  0  0  0  0
   -1.6543   -8.1513   33.6358 H   0  0  0  0  0  0  0  0  0  0  0  0
  1  2  1  0
  2  3  1  0
  3  4  1  0
  4  5  2  0
  4  6  1  0
  6  7  2  3
  7  8  1  0
  8  9  1  0
  9 10  1  0
 10 11  1  0
 11 12  1  0
 12 13  1  0
 12 14  1  0
 14 15  1  0
 15 16  1  0
 16 17  1  0
 17 18  2  0
 17 19  1  0
 19 20  1  0
 20 21  1  0
 21 22  2  0
 22 23  1  0
 23 24  2  0
 24 25  1  0
 25 26  2  0
 15 27  1  0
 27 28  2  0
 27 29  1  0
 29 30  1  0
 30 31  2  0
 13  8  1  0
 26 21  1  0
 30 12  1  0
  1 32  1  0
  1 33  1  0
  1 34  1  0
  2 35  1  0
  2 36  1  0
  6 37  1  0
  7 38  1  0
  8 39  1  0
  9 40  1  0
  9 41  1  0
 10 42  1  0
 10 43  1  0
 11 44  1  0
 11 45  1  0
 13 46  1  0
 13 47  1  0
 14 48  1  0
 14 49  1  0
 16 50  1  0
 16 51  1  0
 19 52  1  0
 20 53  1  0
 20 54  1  0
 22 55  1  0
 23 56  1  0
 24 57  1  0
 25 58  1  0
 26 59  1  0
 29 60  1  0
M  END
>  <Energy>  (277) 
-44.984452091059971

>  <compound_id>  (277) 
274

>  <target_id>  (277) 
1

>  <reference_id>  (277) 
140

>  <inspiration_ids>  (277) 
[140, 194]

>  <energy_score>  (277) 
-45.307142970414866

>  <distance_score>  (277) 
1.0614461910715909

>  <path>  (277) 
/opt/xchem-fragalysis-2/maxwin/BulkDock/SCRATCH/505735/C274-P140/C274-P140.minimised.mol

>  <scratch_subdir>  (277) 
/opt/xchem-fragalysis-2/maxwin/BulkDock/SCRATCH/505735/C274-P140

>  <fragmenstein_runtime>  (277) 
7.8102335929870605

>  <fragmenstein_outcome>  (277) 
too moved

>  <fragmenstein_mode>  (277) 
expansion

>  <fragmenstein_error>  (277) 


$$$$
C274-P194
     RDKit          3D

 60 62  0  0  0  0  0  0  0  0999 V2000
   -5.9010   -1.8916   33.6272 C   0  0  0  0  0  0  0  0  0  0  0  0
   -4.8138   -0.8358   33.6361 C   0  0  0  0  0  0  0  0  0  0  0  0
   -3.6345   -1.3884   33.0414 O   0  0  0  0  0  0  0  0  0  0  0  0
   -2.5154   -0.6380   33.2070 C   0  0  0  0  0  0  0  0  0  0  0  0
   -2.4626    0.4921   33.6656 O   0  0  0  0  0  0  0  0  0  0  0  0
   -1.3175   -1.4283   32.8453 C   0  0  0  0  0  0  0  0  0  0  0  0
   -1.3132   -2.3165   31.8379 C   0  0  0  0  0  0  0  0  0  0  0  0
   -0.2392   -3.3629   31.6419 C   0  0  0  0  0  0  0  0  0  0  0  0
    0.2842   -3.4116   30.2028 C   0  0  0  0  0  0  0  0  0  0  0  0
    1.1652   -4.6383   29.9547 C   0  0  0  0  0  0  0  0  0  0  0  0
    0.4453   -5.9361   30.3240 C   0  0  0  0  0  0  0  0  0  0  0  0
   -0.0475   -5.9573   31.7687 C   0  0  0  0  0  0  0  0  0  0  0  0
   -0.8929   -4.6998   32.0164 C   0  0  0  0  0  0  0  0  0  0  0  0
    1.1179   -6.0079   32.7392 C   0  0  0  0  0  0  0  0  0  0  0  0
    0.6403   -6.0813   34.1018 N   0  0  0  0  0  0  0  0  0  0  0  0
    1.5667   -5.7129   35.1566 C   0  0  0  0  0  0  0  0  0  0  0  0
    2.5575   -6.8676   35.4258 C   0  0  0  0  0  0  0  0  0  0  0  0
    2.6983   -7.7990   34.7336 O   0  0  0  0  0  0  0  0  0  0  0  0
    3.1822   -6.5376   36.8033 N   0  0  0  0  0  0  0  0  0  0  0  0
    4.0274   -7.3199   37.6514 C   0  0  0  0  0  0  0  0  0  0  0  0
    3.2734   -7.5891   38.9241 C   0  0  0  0  0  0  0  0  0  0  0  0
    3.8981   -7.4434   40.1657 C   0  0  0  0  0  0  0  0  0  0  0  0
    3.1889   -7.6940   41.3411 C   0  0  0  0  0  0  0  0  0  0  0  0
    1.8541   -8.0932   41.2881 C   0  0  0  0  0  0  0  0  0  0  0  0
    1.2236   -8.2500   40.0597 C   0  0  0  0  0  0  0  0  0  0  0  0
    1.9297   -8.0061   38.8854 C   0  0  0  0  0  0  0  0  0  0  0  0
   -0.3914   -6.9397   34.4346 C   0  0  0  0  0  0  0  0  0  0  0  0
   -0.7144   -7.2030   35.5885 O   0  0  0  0  0  0  0  0  0  0  0  0
   -1.0453   -7.5152   33.3800 N   0  0  0  0  0  0  0  0  0  0  0  0
   -0.8947   -7.2064   32.0517 C   0  0  0  0  0  0  0  0  0  0  0  0
   -1.4630   -7.8689   31.1833 O   0  0  0  0  0  0  0  0  0  0  0  0
   -6.8411   -1.4872   34.0129 H   0  0  0  0  0  0  0  0  0  0  0  0
   -6.0675   -2.2751   32.6162 H   0  0  0  0  0  0  0  0  0  0  0  0
   -5.6084   -2.7446   34.2462 H   0  0  0  0  0  0  0  0  0  0  0  0
   -4.6123   -0.5286   34.6688 H   0  0  0  0  0  0  0  0  0  0  0  0
   -5.1371    0.0309   33.0571 H   0  0  0  0  0  0  0  0  0  0  0  0
   -0.4743   -1.2985   33.5126 H   0  0  0  0  0  0  0  0  0  0  0  0
   -2.1892   -2.3892   31.1926 H   0  0  0  0  0  0  0  0  0  0  0  0
    0.6011   -3.1657   32.3189 H   0  0  0  0  0  0  0  0  0  0  0  0
   -0.5556   -3.4324   29.4951 H   0  0  0  0  0  0  0  0  0  0  0  0
    0.8540   -2.5011   29.9814 H   0  0  0  0  0  0  0  0  0  0  0  0
    2.1008   -4.5449   30.5170 H   0  0  0  0  0  0  0  0  0  0  0  0
    1.4467   -4.6673   28.8959 H   0  0  0  0  0  0  0  0  0  0  0  0
    1.0931   -6.7921   30.1196 H   0  0  0  0  0  0  0  0  0  0  0  0
   -0.4156   -6.0516   29.6597 H   0  0  0  0  0  0  0  0  0  0  0  0
   -1.2528   -4.6566   33.0502 H   0  0  0  0  0  0  0  0  0  0  0  0
   -1.7775   -4.7953   31.3968 H   0  0  0  0  0  0  0  0  0  0  0  0
    1.7612   -5.1271   32.6512 H   0  0  0  0  0  0  0  0  0  0  0  0
    1.7380   -6.8826   32.5516 H   0  0  0  0  0  0  0  0  0  0  0  0
    0.9966   -5.4996   36.0678 H   0  0  0  0  0  0  0  0  0  0  0  0
    2.1201   -4.8145   34.8657 H   0  0  0  0  0  0  0  0  0  0  0  0
    2.9053   -5.6042   37.0859 H   0  0  0  0  0  0  0  0  0  0  0  0
    4.9377   -6.7411   37.8335 H   0  0  0  0  0  0  0  0  0  0  0  0
    4.2832   -8.2586   37.1510 H   0  0  0  0  0  0  0  0  0  0  0  0
    4.9391   -7.1375   40.2321 H   0  0  0  0  0  0  0  0  0  0  0  0
    3.6797   -7.5857   42.3050 H   0  0  0  0  0  0  0  0  0  0  0  0
    1.3102   -8.3041   42.2051 H   0  0  0  0  0  0  0  0  0  0  0  0
    0.1958   -8.6009   40.0120 H   0  0  0  0  0  0  0  0  0  0  0  0
    1.4201   -8.1688   37.9375 H   0  0  0  0  0  0  0  0  0  0  0  0
   -1.6436   -8.2945   33.6224 H   0  0  0  0  0  0  0  0  0  0  0  0
  1  2  1  0
  2  3  1  0
  3  4  1  0
  4  5  2  0
  4  6  1  0
  6  7  2  3
  7  8  1  0
  8  9  1  0
  9 10  1  0
 10 11  1  0
 11 12  1  0
 12 13  1  0
 12 14  1  0
 14 15  1  0
 15 16  1  0
 16 17  1  0
 17 18  2  0
 17 19  1  0
 19 20  1  0
 20 21  1  0
 21 22  2  0
 22 23  1  0
 23 24  2  0
 24 25  1  0
 25 26  2  0
 15 27  1  0
 27 28  2  0
 27 29  1  0
 29 30  1  0
 30 31  2  0
 13  8  1  0
 26 21  1  0
 30 12  1  0
  1 32  1  0
  1 33  1  0
  1 34  1  0
  2 35  1  0
  2 36  1  0
  6 37  1  0
  7 38  1  0
  8 39  1  0
  9 40  1  0
  9 41  1  0
 10 42  1  0
 10 43  1  0
 11 44  1  0
 11 45  1  0
 13 46  1  0
 13 47  1  0
 14 48  1  0
 14 49  1  0
 16 50  1  0
 16 51  1  0
 19 52  1  0
 20 53  1  0
 20 54  1  0
 22 55  1  0
 23 56  1  0
 24 57  1  0
 25 58  1  0
 26 59  1  0
 29 60  1  0
M  END
>  <Energy>  (278) 
-52.272020565486663

>  <compound_id>  (278) 
274

>  <target_id>  (278) 
1

>  <reference_id>  (278) 
194

>  <inspiration_ids>  (278) 
[140, 194]

>  <energy_score>  (278) 
-52.59471144484165

>  <distance_score>  (278) 
1.030157298356151

>  <path>  (278) 
/opt/xchem-fragalysis-2/maxwin/BulkDock/SCRATCH/505735/C274-P194/C274-P194.minimised.mol

>  <scratch_subdir>  (278) 
/opt/xchem-fragalysis-2/maxwin/BulkDock/SCRATCH/505735/C274-P194

>  <fragmenstein_runtime>  (278) 
8.213629722595215

>  <fragmenstein_outcome>  (278) 
too moved

>  <fragmenstein_mode>  (278) 
expansion

>  <fragmenstein_error>  (278) 


$$$$
C4030-P140
     RDKit          3D

 56 58  0  0  0  0  0  0  0  0999 V2000
    3.2188   -5.4684   33.7357 O   0  0  0  0  0  0  0  0  0  0  0  0
    2.3764   -5.3282   34.5336 C   0  0  0  0  0  0  0  0  0  0  0  0
    1.0139   -4.6965   34.1656 C   0  0  0  0  0  0  0  0  0  0  0  0
    0.2617   -5.6495   33.3504 N   0  0  0  0  0  0  0  0  0  0  0  0
    0.3422   -5.6812   31.9545 C   0  0  0  0  0  0  0  0  0  0  0  0
    1.2125   -4.7333   31.1428 C   0  0  0  0  0  0  0  0  0  0  0  0
    0.4361   -3.5971   30.4588 C   0  0  0  0  0  0  0  0  0  0  0  0
    0.1121   -2.5633   31.4347 N   0  0  0  0  0  0  0  0  0  0  0  0
   -1.4160   -1.9451   31.5955 S   0  0  0  0  0  0  0  0  0  0  0  0
   -2.3626   -3.0020   31.3336 O   0  0  0  0  0  0  0  0  0  0  0  0
   -1.4075   -1.2133   32.8388 O   0  0  0  0  0  0  0  0  0  0  0  0
   -1.4479   -0.8250   30.3663 N   0  0  0  0  0  0  0  0  0  0  0  0
   -0.7141    0.4545   30.5560 C   0  0  0  0  0  0  0  0  0  0  0  0
   -0.8417    1.3292   29.3010 C   0  0  0  0  0  0  0  0  0  0  0  0
   -0.2828    0.7283   28.1351 O   0  0  0  0  0  0  0  0  0  0  0  0
   -0.3393   -0.6961   28.1724 C   0  0  0  0  0  0  0  0  0  0  0  0
   -1.5150   -1.2627   28.9520 C   0  0  0  0  0  0  0  0  0  0  0  0
   -0.3381   -6.6134   31.2758 C   0  0  0  0  0  0  0  0  0  0  0  0
   -1.1629   -7.5932   31.9756 C   0  0  0  0  0  0  0  0  0  0  0  0
   -1.7789   -8.4257   31.3240 O   0  0  0  0  0  0  0  0  0  0  0  0
   -1.1645   -7.5125   33.3299 N   0  0  0  0  0  0  0  0  0  0  0  0
   -0.4935   -6.5822   34.0722 C   0  0  0  0  0  0  0  0  0  0  0  0
   -0.5543   -6.6194   35.3007 O   0  0  0  0  0  0  0  0  0  0  0  0
    2.3167   -5.7681   36.0187 N   0  0  0  0  0  0  0  0  0  0  0  0
    3.3152   -6.3847   36.8513 C   0  0  0  0  0  0  0  0  0  0  0  0
    2.7999   -6.8733   38.1783 C   0  0  0  0  0  0  0  0  0  0  0  0
    3.6730   -6.9366   39.2773 C   0  0  0  0  0  0  0  0  0  0  0  0
    3.2424   -7.4383   40.5083 C   0  0  0  0  0  0  0  0  0  0  0  0
    1.9343   -7.8871   40.6575 C   0  0  0  0  0  0  0  0  0  0  0  0
    1.0607   -7.8397   39.5760 C   0  0  0  0  0  0  0  0  0  0  0  0
    1.4918   -7.3501   38.3416 C   0  0  0  0  0  0  0  0  0  0  0  0
    1.1902   -3.7586   33.6340 H   0  0  0  0  0  0  0  0  0  0  0  0
    0.4389   -4.4277   35.0575 H   0  0  0  0  0  0  0  0  0  0  0  0
    1.7016   -5.3194   30.3512 H   0  0  0  0  0  0  0  0  0  0  0  0
    2.0411   -4.3286   31.7305 H   0  0  0  0  0  0  0  0  0  0  0  0
    1.0698   -3.1482   29.6868 H   0  0  0  0  0  0  0  0  0  0  0  0
   -0.4524   -3.9944   29.9616 H   0  0  0  0  0  0  0  0  0  0  0  0
    0.8504   -1.9537   31.7764 H   0  0  0  0  0  0  0  0  0  0  0  0
   -1.1326    0.9917   31.4123 H   0  0  0  0  0  0  0  0  0  0  0  0
    0.3434    0.2409   30.7479 H   0  0  0  0  0  0  0  0  0  0  0  0
   -1.8930    1.5448   29.0844 H   0  0  0  0  0  0  0  0  0  0  0  0
   -0.3253    2.2821   29.4514 H   0  0  0  0  0  0  0  0  0  0  0  0
   -0.4264   -1.0191   27.1519 H   0  0  0  0  0  0  0  0  0  0  0  0
    0.6150   -1.0642   28.5632 H   0  0  0  0  0  0  0  0  0  0  0  0
   -1.5482   -2.3496   28.8606 H   0  0  0  0  0  0  0  0  0  0  0  0
   -2.4265   -0.8657   28.5091 H   0  0  0  0  0  0  0  0  0  0  0  0
   -0.3134   -6.7009   30.1978 H   0  0  0  0  0  0  0  0  0  0  0  0
   -1.6480   -8.2397   33.8435 H   0  0  0  0  0  0  0  0  0  0  0  0
    1.4662   -5.4108   36.4446 H   0  0  0  0  0  0  0  0  0  0  0  0
    3.7545   -7.2149   36.2880 H   0  0  0  0  0  0  0  0  0  0  0  0
    4.0978   -5.6319   36.9968 H   0  0  0  0  0  0  0  0  0  0  0  0
    4.7033   -6.6006   39.1807 H   0  0  0  0  0  0  0  0  0  0  0  0
    3.9301   -7.4868   41.3482 H   0  0  0  0  0  0  0  0  0  0  0  0
    1.5979   -8.2965   41.6062 H   0  0  0  0  0  0  0  0  0  0  0  0
    0.0513   -8.2287   39.6836 H   0  0  0  0  0  0  0  0  0  0  0  0
    0.7935   -7.3776   37.5080 H   0  0  0  0  0  0  0  0  0  0  0  0
  1  2  2  0
  2  3  1  0
  3  4  1  0
  4  5  1  0
  5  6  1  0
  6  7  1  0
  7  8  1  0
  8  9  1  0
  9 10  2  0
  9 11  2  0
  9 12  1  0
 12 13  1  0
 13 14  1  0
 14 15  1  0
 15 16  1  0
 16 17  1  0
  5 18  2  0
 18 19  1  0
 19 20  2  0
 19 21  1  0
 21 22  1  0
 22 23  2  0
  2 24  1  0
 24 25  1  0
 25 26  1  0
 26 27  2  0
 27 28  1  0
 28 29  2  0
 29 30  1  0
 30 31  2  0
 22  4  1  0
 31 26  1  0
 17 12  1  0
  3 32  1  0
  3 33  1  0
  6 34  1  0
  6 35  1  0
  7 36  1  0
  7 37  1  0
  8 38  1  0
 13 39  1  0
 13 40  1  0
 14 41  1  0
 14 42  1  0
 16 43  1  0
 16 44  1  0
 17 45  1  0
 17 46  1  0
 18 47  1  0
 21 48  1  0
 24 49  1  0
 25 50  1  0
 25 51  1  0
 27 52  1  0
 28 53  1  0
 29 54  1  0
 30 55  1  0
 31 56  1  0
M  END
>  <Energy>  (279) 
-168.02336198954768

>  <compound_id>  (279) 
4030

>  <target_id>  (279) 
1

>  <reference_id>  (279) 
140

>  <inspiration_ids>  (279) 
[140, 195]

>  <energy_score>  (279) 
-49.812239227715295

>  <distance_score>  (279) 
0.7782665976048728

>  <path>  (279) 
/opt/xchem-fragalysis-2/maxwin/BulkDock/SCRATCH/505735/C4030-P140/C4030-P140.minimised.mol

>  <scratch_subdir>  (279) 
/opt/xchem-fragalysis-2/maxwin/BulkDock/SCRATCH/505735/C4030-P140

>  <fragmenstein_runtime>  (279) 
8.576640367507935

>  <fragmenstein_outcome>  (279) 
acceptable

>  <fragmenstein_mode>  (279) 
expansion

>  <fragmenstein_error>  (279) 


$$$$
C4030-P195
     RDKit          3D

 56 58  0  0  0  0  0  0  0  0999 V2000
    3.4674   -5.8070   33.8362 O   0  0  0  0  0  0  0  0  0  0  0  0
    2.5721   -5.7383   34.5828 C   0  0  0  0  0  0  0  0  0  0  0  0
    1.2618   -5.0082   34.2222 C   0  0  0  0  0  0  0  0  0  0  0  0
    0.4160   -5.8942   33.4199 N   0  0  0  0  0  0  0  0  0  0  0  0
    0.4711   -5.9382   32.0253 C   0  0  0  0  0  0  0  0  0  0  0  0
    1.3190   -4.9900   31.1960 C   0  0  0  0  0  0  0  0  0  0  0  0
    0.4920   -3.8465   30.5961 C   0  0  0  0  0  0  0  0  0  0  0  0
    0.1200   -2.8760   31.6528 N   0  0  0  0  0  0  0  0  0  0  0  0
   -1.2004   -1.9033   31.3021 S   0  0  0  0  0  0  0  0  0  0  0  0
   -2.3114   -2.8108   31.1412 O   0  0  0  0  0  0  0  0  0  0  0  0
   -1.2316   -0.8426   32.2769 O   0  0  0  0  0  0  0  0  0  0  0  0
   -0.7065   -1.3081   29.8264 N   0  0  0  0  0  0  0  0  0  0  0  0
    0.4471   -0.3642   29.8029 C   0  0  0  0  0  0  0  0  0  0  0  0
    0.0171    1.0471   29.3990 C   0  0  0  0  0  0  0  0  0  0  0  0
   -0.6647    1.1349   28.1425 O   0  0  0  0  0  0  0  0  0  0  0  0
   -1.2623   -0.0993   27.7421 C   0  0  0  0  0  0  0  0  0  0  0  0
   -1.8062   -0.8931   28.9206 C   0  0  0  0  0  0  0  0  0  0  0  0
   -0.2575   -6.8427   31.3604 C   0  0  0  0  0  0  0  0  0  0  0  0
   -1.1102   -7.7900   32.0731 C   0  0  0  0  0  0  0  0  0  0  0  0
   -1.7950   -8.5668   31.4207 O   0  0  0  0  0  0  0  0  0  0  0  0
   -1.0660   -7.7188   33.4298 N   0  0  0  0  0  0  0  0  0  0  0  0
   -0.3781   -6.7861   34.1574 C   0  0  0  0  0  0  0  0  0  0  0  0
   -0.4585   -6.7617   35.3845 O   0  0  0  0  0  0  0  0  0  0  0  0
    2.3936   -6.3493   35.9943 N   0  0  0  0  0  0  0  0  0  0  0  0
    3.3134   -7.0887   36.8140 C   0  0  0  0  0  0  0  0  0  0  0  0
    2.7897   -7.3353   38.2021 C   0  0  0  0  0  0  0  0  0  0  0  0
    3.6282   -7.1767   39.3150 C   0  0  0  0  0  0  0  0  0  0  0  0
    3.1600   -7.4474   40.6034 C   0  0  0  0  0  0  0  0  0  0  0  0
    1.8505   -7.8816   40.7953 C   0  0  0  0  0  0  0  0  0  0  0  0
    1.0114   -8.0530   39.6991 C   0  0  0  0  0  0  0  0  0  0  0  0
    1.4789   -7.7896   38.4114 C   0  0  0  0  0  0  0  0  0  0  0  0
    1.5157   -4.0876   33.6927 H   0  0  0  0  0  0  0  0  0  0  0  0
    0.7278   -4.6858   35.1226 H   0  0  0  0  0  0  0  0  0  0  0  0
    1.7628   -5.5565   30.3650 H   0  0  0  0  0  0  0  0  0  0  0  0
    2.1759   -4.6012   31.7530 H   0  0  0  0  0  0  0  0  0  0  0  0
    1.1022   -3.3305   29.8471 H   0  0  0  0  0  0  0  0  0  0  0  0
   -0.3951   -4.2473   30.0943 H   0  0  0  0  0  0  0  0  0  0  0  0
   -0.1299   -3.3279   32.5329 H   0  0  0  0  0  0  0  0  0  0  0  0
    0.9612   -0.3350   30.7690 H   0  0  0  0  0  0  0  0  0  0  0  0
    1.1660   -0.7557   29.0729 H   0  0  0  0  0  0  0  0  0  0  0  0
   -0.6407    1.4464   30.1677 H   0  0  0  0  0  0  0  0  0  0  0  0
    0.8892    1.7065   29.3461 H   0  0  0  0  0  0  0  0  0  0  0  0
   -0.4885   -0.6769   27.2376 H   0  0  0  0  0  0  0  0  0  0  0  0
   -2.0527    0.1296   27.0221 H   0  0  0  0  0  0  0  0  0  0  0  0
   -2.3131   -1.7860   28.5493 H   0  0  0  0  0  0  0  0  0  0  0  0
   -2.4881   -0.2680   29.5013 H   0  0  0  0  0  0  0  0  0  0  0  0
   -0.2644   -6.9238   30.2810 H   0  0  0  0  0  0  0  0  0  0  0  0
   -1.5620   -8.4311   33.9586 H   0  0  0  0  0  0  0  0  0  0  0  0
    1.5195   -6.0198   36.3996 H   0  0  0  0  0  0  0  0  0  0  0  0
    3.5204   -8.0403   36.3129 H   0  0  0  0  0  0  0  0  0  0  0  0
    4.2489   -6.5195   36.8341 H   0  0  0  0  0  0  0  0  0  0  0  0
    4.6554   -6.8419   39.1879 H   0  0  0  0  0  0  0  0  0  0  0  0
    3.8182   -7.3175   41.4586 H   0  0  0  0  0  0  0  0  0  0  0  0
    1.4859   -8.0935   41.7965 H   0  0  0  0  0  0  0  0  0  0  0  0
   -0.0030   -8.4187   39.8371 H   0  0  0  0  0  0  0  0  0  0  0  0
    0.8071   -7.9722   37.5725 H   0  0  0  0  0  0  0  0  0  0  0  0
  1  2  2  0
  2  3  1  0
  3  4  1  0
  4  5  1  0
  5  6  1  0
  6  7  1  0
  7  8  1  0
  8  9  1  0
  9 10  2  0
  9 11  2  0
  9 12  1  0
 12 13  1  0
 13 14  1  0
 14 15  1  0
 15 16  1  0
 16 17  1  0
  5 18  2  0
 18 19  1  0
 19 20  2  0
 19 21  1  0
 21 22  1  0
 22 23  2  0
  2 24  1  0
 24 25  1  0
 25 26  1  0
 26 27  2  0
 27 28  1  0
 28 29  2  0
 29 30  1  0
 30 31  2  0
 22  4  1  0
 31 26  1  0
 17 12  1  0
  3 32  1  0
  3 33  1  0
  6 34  1  0
  6 35  1  0
  7 36  1  0
  7 37  1  0
  8 38  1  0
 13 39  1  0
 13 40  1  0
 14 41  1  0
 14 42  1  0
 16 43  1  0
 16 44  1  0
 17 45  1  0
 17 46  1  0
 18 47  1  0
 21 48  1  0
 24 49  1  0
 25 50  1  0
 25 51  1  0
 27 52  1  0
 28 53  1  0
 29 54  1  0
 30 55  1  0
 31 56  1  0
M  END
>  <Energy>  (280) 
-171.65945814107945

>  <compound_id>  (280) 
4030

>  <target_id>  (280) 
1

>  <reference_id>  (280) 
195

>  <inspiration_ids>  (280) 
[140, 195]

>  <energy_score>  (280) 
-53.44833537924703

>  <distance_score>  (280) 
0.7993121464521807

>  <path>  (280) 
/opt/xchem-fragalysis-2/maxwin/BulkDock/SCRATCH/505735/C4030-P195/C4030-P195.minimised.mol

>  <scratch_subdir>  (280) 
/opt/xchem-fragalysis-2/maxwin/BulkDock/SCRATCH/505735/C4030-P195

>  <fragmenstein_runtime>  (280) 
10.05118203163147

>  <fragmenstein_outcome>  (280) 
acceptable

>  <fragmenstein_mode>  (280) 
expansion

>  <fragmenstein_error>  (280) 


$$$$
C4031-P140
     RDKit          3D

 45 47  0  0  0  0  0  0  0  0999 V2000
    4.7072   -4.4522   35.3825 C   0  0  0  0  0  0  0  0  0  0  0  0
    4.1890   -5.7521   35.8700 C   0  0  0  0  0  0  0  0  0  0  0  0
    4.7332   -6.9295   35.6395 N   0  0  0  0  0  0  0  0  0  0  0  0
    4.0128   -7.8710   36.3256 N   0  0  0  0  0  0  0  0  0  0  0  0
    3.0403   -7.2552   36.9532 C   0  0  0  0  0  0  0  0  0  0  0  0
    3.0561   -5.9375   36.6221 N   0  0  0  0  0  0  0  0  0  0  0  0
    2.0330   -4.9870   36.9939 C   0  0  0  0  0  0  0  0  0  0  0  0
    1.0429   -4.6030   35.8888 C   0  0  0  0  0  0  0  0  0  0  0  0
   -0.0308   -4.2033   36.1647 O   0  0  0  0  0  0  0  0  0  0  0  0
    1.7259   -4.7352   34.5362 N   0  0  0  0  0  0  0  0  0  0  0  0
    1.4504   -6.1149   33.9039 C   0  0  0  0  0  0  0  0  0  0  0  0
    0.0015   -6.5851   33.6849 C   0  0  0  0  0  0  0  0  0  0  0  0
   -0.5702   -5.8233   32.5218 C   0  0  0  0  0  0  0  0  0  0  0  0
   -0.2184   -4.3806   32.8134 C   0  0  0  0  0  0  0  0  0  0  0  0
   -0.5446   -3.4548   31.6768 C   0  0  0  0  0  0  0  0  0  0  0  0
    0.0498   -3.5642   30.4185 C   0  0  0  0  0  0  0  0  0  0  0  0
   -0.2624   -2.6295   29.4323 C   0  0  0  0  0  0  0  0  0  0  0  0
   -1.1679   -1.5946   29.6760 C   0  0  0  0  0  0  0  0  0  0  0  0
   -1.5936   -0.6844   28.5648 C   0  0  0  0  0  0  0  0  0  0  0  0
   -0.4956   -0.3187   27.7519 O   0  0  0  0  0  0  0  0  0  0  0  0
   -1.7497   -1.4880   30.9396 C   0  0  0  0  0  0  0  0  0  0  0  0
   -1.4379   -2.4078   31.9304 C   0  0  0  0  0  0  0  0  0  0  0  0
    1.2790   -4.3046   33.1697 C   0  0  0  0  0  0  0  0  0  0  0  0
    4.1916   -3.5971   35.8266 H   0  0  0  0  0  0  0  0  0  0  0  0
    4.6065   -4.3901   34.2945 H   0  0  0  0  0  0  0  0  0  0  0  0
    5.7704   -4.3619   35.6276 H   0  0  0  0  0  0  0  0  0  0  0  0
    2.3076   -7.7169   37.6034 H   0  0  0  0  0  0  0  0  0  0  0  0
    1.4644   -5.4196   37.8254 H   0  0  0  0  0  0  0  0  0  0  0  0
    2.5275   -4.0806   37.3570 H   0  0  0  0  0  0  0  0  0  0  0  0
    2.1249   -6.3475   33.0643 H   0  0  0  0  0  0  0  0  0  0  0  0
    1.7998   -6.8237   34.6588 H   0  0  0  0  0  0  0  0  0  0  0  0
   -0.5997   -6.4311   34.5882 H   0  0  0  0  0  0  0  0  0  0  0  0
   -0.0327   -7.6505   33.4575 H   0  0  0  0  0  0  0  0  0  0  0  0
   -1.6456   -5.9814   32.4429 H   0  0  0  0  0  0  0  0  0  0  0  0
   -0.1208   -6.1757   31.5853 H   0  0  0  0  0  0  0  0  0  0  0  0
   -0.7939   -4.0661   33.6939 H   0  0  0  0  0  0  0  0  0  0  0  0
    0.7537   -4.3567   30.1863 H   0  0  0  0  0  0  0  0  0  0  0  0
    0.1880   -2.7237   28.4470 H   0  0  0  0  0  0  0  0  0  0  0  0
   -2.0055    0.2432   28.9699 H   0  0  0  0  0  0  0  0  0  0  0  0
   -2.3493   -1.1810   27.9492 H   0  0  0  0  0  0  0  0  0  0  0  0
   -0.7669   -0.5515   26.8421 H   0  0  0  0  0  0  0  0  0  0  0  0
   -2.4565   -0.6908   31.1534 H   0  0  0  0  0  0  0  0  0  0  0  0
   -1.9016   -2.2988   32.9108 H   0  0  0  0  0  0  0  0  0  0  0  0
    1.4778   -3.2222   33.2521 H   0  0  0  0  0  0  0  0  0  0  0  0
    1.9768   -4.5734   32.3563 H   0  0  0  0  0  0  0  0  0  0  0  0
  1  2  1  0
  2  3  2  0
  3  4  1  0
  4  5  2  0
  5  6  1  0
  6  7  1  0
  7  8  1  0
  8  9  2  0
  8 10  1  0
 10 11  1  0
 11 12  1  0
 12 13  1  0
 13 14  1  0
 14 15  1  0
 15 16  2  0
 16 17  1  0
 17 18  2  0
 18 19  1  0
 19 20  1  0
 18 21  1  0
 21 22  2  0
 14 23  1  0
  6  2  1  0
 23 10  1  0
 22 15  1  0
  1 24  1  0
  1 25  1  0
  1 26  1  0
  5 27  1  0
  7 28  1  0
  7 29  1  0
 11 30  1  0
 11 31  1  0
 12 32  1  0
 12 33  1  0
 13 34  1  0
 13 35  1  0
 14 36  1  0
 16 37  1  0
 17 38  1  0
 19 39  1  0
 19 40  1  0
 20 41  1  0
 21 42  1  0
 22 43  1  0
 23 44  1  0
 23 45  1  0
M  END
>  <Energy>  (281) 
118.6241725151324

>  <compound_id>  (281) 
4031

>  <target_id>  (281) 
1

>  <reference_id>  (281) 
140

>  <inspiration_ids>  (281) 
[140, 196]

>  <energy_score>  (281) 
62.75750890360179

>  <distance_score>  (281) 
2.336710893065901

>  <path>  (281) 
/opt/xchem-fragalysis-2/maxwin/BulkDock/SCRATCH/505735/C4031-P140/C4031-P140.minimised.mol

>  <scratch_subdir>  (281) 
/opt/xchem-fragalysis-2/maxwin/BulkDock/SCRATCH/505735/C4031-P140

>  <fragmenstein_runtime>  (281) 
12.950540542602539

>  <fragmenstein_outcome>  (281) 
too moved

>  <fragmenstein_mode>  (281) 
expansion

>  <fragmenstein_error>  (281) 


$$$$
C4031-P196
     RDKit          3D

 45 47  0  0  0  0  0  0  0  0999 V2000
    5.3941   -5.7186   35.5369 C   0  0  0  0  0  0  0  0  0  0  0  0
    4.0992   -6.3369   35.1718 C   0  0  0  0  0  0  0  0  0  0  0  0
    3.7003   -7.5587   35.4676 N   0  0  0  0  0  0  0  0  0  0  0  0
    2.4403   -7.7373   34.9555 N   0  0  0  0  0  0  0  0  0  0  0  0
    2.0901   -6.6198   34.3657 C   0  0  0  0  0  0  0  0  0  0  0  0
    3.1203   -5.7303   34.4296 N   0  0  0  0  0  0  0  0  0  0  0  0
    3.2037   -4.5054   33.6704 C   0  0  0  0  0  0  0  0  0  0  0  0
    2.9960   -3.2461   34.4937 C   0  0  0  0  0  0  0  0  0  0  0  0
    3.9217   -2.7368   35.0684 O   0  0  0  0  0  0  0  0  0  0  0  0
    1.6417   -2.8154   34.3493 N   0  0  0  0  0  0  0  0  0  0  0  0
    0.7854   -3.3838   35.4825 C   0  0  0  0  0  0  0  0  0  0  0  0
   -0.6830   -3.6230   35.1291 C   0  0  0  0  0  0  0  0  0  0  0  0
   -1.3931   -2.2978   34.9499 C   0  0  0  0  0  0  0  0  0  0  0  0
   -0.4723   -1.3140   34.2391 C   0  0  0  0  0  0  0  0  0  0  0  0
   -0.5570   -1.2905   32.7147 C   0  0  0  0  0  0  0  0  0  0  0  0
   -1.0869   -2.3269   31.9332 C   0  0  0  0  0  0  0  0  0  0  0  0
   -1.1875   -2.2003   30.5402 C   0  0  0  0  0  0  0  0  0  0  0  0
   -0.7524   -1.0417   29.8916 C   0  0  0  0  0  0  0  0  0  0  0  0
   -0.9008   -0.8799   28.4024 C   0  0  0  0  0  0  0  0  0  0  0  0
    0.3294   -0.4195   27.8602 O   0  0  0  0  0  0  0  0  0  0  0  0
   -0.2094   -0.0125   30.6653 C   0  0  0  0  0  0  0  0  0  0  0  0
   -0.1079   -0.1374   32.0517 C   0  0  0  0  0  0  0  0  0  0  0  0
    0.9665   -1.5365   34.7711 C   0  0  0  0  0  0  0  0  0  0  0  0
    5.9227   -5.3555   34.6507 H   0  0  0  0  0  0  0  0  0  0  0  0
    6.0386   -6.4504   36.0340 H   0  0  0  0  0  0  0  0  0  0  0  0
    5.2416   -4.8830   36.2259 H   0  0  0  0  0  0  0  0  0  0  0  0
    1.1512   -6.4318   33.8626 H   0  0  0  0  0  0  0  0  0  0  0  0
    2.4731   -4.5557   32.8538 H   0  0  0  0  0  0  0  0  0  0  0  0
    4.1907   -4.4607   33.1965 H   0  0  0  0  0  0  0  0  0  0  0  0
    0.9586   -2.9553   36.4853 H   0  0  0  0  0  0  0  0  0  0  0  0
    1.1783   -4.3946   35.6466 H   0  0  0  0  0  0  0  0  0  0  0  0
   -1.1701   -4.2005   35.9232 H   0  0  0  0  0  0  0  0  0  0  0  0
   -0.7406   -4.2275   34.2182 H   0  0  0  0  0  0  0  0  0  0  0  0
   -2.3604   -2.4007   34.4517 H   0  0  0  0  0  0  0  0  0  0  0  0
   -1.6101   -1.9012   35.9515 H   0  0  0  0  0  0  0  0  0  0  0  0
   -0.7937   -0.3132   34.5637 H   0  0  0  0  0  0  0  0  0  0  0  0
   -1.4522   -3.2419   32.3866 H   0  0  0  0  0  0  0  0  0  0  0  0
   -1.6097   -3.0150   29.9553 H   0  0  0  0  0  0  0  0  0  0  0  0
   -1.6960   -0.1589   28.1842 H   0  0  0  0  0  0  0  0  0  0  0  0
   -1.1473   -1.8290   27.9168 H   0  0  0  0  0  0  0  0  0  0  0  0
    0.1361    0.3721   27.3244 H   0  0  0  0  0  0  0  0  0  0  0  0
    0.1484    0.8955   30.1826 H   0  0  0  0  0  0  0  0  0  0  0  0
    0.3218    0.6903   32.6128 H   0  0  0  0  0  0  0  0  0  0  0  0
    1.5941   -0.7896   34.2581 H   0  0  0  0  0  0  0  0  0  0  0  0
    1.1237   -1.2157   35.8158 H   0  0  0  0  0  0  0  0  0  0  0  0
  1  2  1  0
  2  3  2  0
  3  4  1  0
  4  5  2  0
  5  6  1  0
  6  7  1  0
  7  8  1  0
  8  9  2  0
  8 10  1  0
 10 11  1  0
 11 12  1  0
 12 13  1  0
 13 14  1  0
 14 15  1  0
 15 16  2  0
 16 17  1  0
 17 18  2  0
 18 19  1  0
 19 20  1  0
 18 21  1  0
 21 22  2  0
 14 23  1  0
  6  2  1  0
 23 10  1  0
 22 15  1  0
  1 24  1  0
  1 25  1  0
  1 26  1  0
  5 27  1  0
  7 28  1  0
  7 29  1  0
 11 30  1  0
 11 31  1  0
 12 32  1  0
 12 33  1  0
 13 34  1  0
 13 35  1  0
 14 36  1  0
 16 37  1  0
 17 38  1  0
 19 39  1  0
 19 40  1  0
 20 41  1  0
 21 42  1  0
 22 43  1  0
 23 44  1  0
 23 45  1  0
M  END
>  <Energy>  (282) 
100.55107809545993

>  <compound_id>  (282) 
4031

>  <target_id>  (282) 
1

>  <reference_id>  (282) 
196

>  <inspiration_ids>  (282) 
[140, 196]

>  <energy_score>  (282) 
37.21047931132378

>  <distance_score>  (282) 
3.866451864179279

>  <path>  (282) 
/opt/xchem-fragalysis-2/maxwin/BulkDock/SCRATCH/505735/C4031-P196/C4031-P196.minimised.mol

>  <scratch_subdir>  (282) 
/opt/xchem-fragalysis-2/maxwin/BulkDock/SCRATCH/505735/C4031-P196

>  <fragmenstein_runtime>  (282) 
9.033607244491577

>  <fragmenstein_outcome>  (282) 
too moved

>  <fragmenstein_mode>  (282) 
expansion

>  <fragmenstein_error>  (282) 


$$$$
C4035-P140
     RDKit          3D

 70 74  0  0  0  0  0  0  0  0999 V2000
    7.9262   -7.5171   34.0175 C   0  0  0  0  0  0  0  0  0  0  0  0
    7.0424   -6.3141   34.1555 C   0  0  0  0  0  0  0  0  0  0  0  0
    7.1814   -5.2415   33.2810 C   0  0  0  0  0  0  0  0  0  0  0  0
    6.3474   -4.1403   33.4395 C   0  0  0  0  0  0  0  0  0  0  0  0
    5.4185   -4.1317   34.4726 C   0  0  0  0  0  0  0  0  0  0  0  0
    5.3514   -5.2363   35.3063 C   0  0  0  0  0  0  0  0  0  0  0  0
    4.4243   -5.3232   36.3196 N   0  0  0  0  0  0  0  0  0  0  0  0
    3.4513   -4.3786   36.7908 C   0  0  0  0  0  0  0  0  0  0  0  0
    3.2479   -3.2388   36.4750 O   0  0  0  0  0  0  0  0  0  0  0  0
    2.4842   -5.0329   37.7906 C   0  0  0  0  0  0  0  0  0  0  0  0
    3.1603   -5.5807   39.0592 C   0  0  0  0  0  0  0  0  0  0  0  0
    2.3041   -6.7628   39.4741 C   0  0  0  0  0  0  0  0  0  0  0  0
    1.9066   -7.3791   38.1444 C   0  0  0  0  0  0  0  0  0  0  0  0
    1.5636   -6.1814   37.2196 C   0  0  0  0  0  0  0  0  0  0  0  0
    0.0728   -5.7927   37.4309 C   0  0  0  0  0  0  0  0  0  0  0  0
   -0.4514   -4.9119   36.2975 C   0  0  0  0  0  0  0  0  0  0  0  0
   -0.4665   -5.6508   34.9420 C   0  0  0  0  0  0  0  0  0  0  0  0
   -0.3959   -4.6608   33.7376 C   0  0  0  0  0  0  0  0  0  0  0  0
   -0.5600   -5.3269   32.3816 C   0  0  0  0  0  0  0  0  0  0  0  0
   -0.4926   -4.2284   31.3421 C   0  0  0  0  0  0  0  0  0  0  0  0
    0.3047   -3.0274   31.8816 C   0  0  0  0  0  0  0  0  0  0  0  0
    1.6505   -3.3257   32.5115 N   0  0  0  0  0  0  0  0  0  0  0  0
    2.4046   -4.1977   31.6706 C   0  0  0  0  0  0  0  0  0  0  0  0
    2.4683   -5.3978   31.6468 O   0  0  0  0  0  0  0  0  0  0  0  0
    3.2604   -3.3628   30.7202 C   0  0  0  0  0  0  0  0  0  0  0  0
    3.3157   -3.9631   29.4061 N   0  0  0  0  0  0  0  0  0  0  0  0
    4.2782   -4.7932   28.9229 C   0  0  0  0  0  0  0  0  0  0  0  0
    3.9586   -5.1681   27.7052 N   0  0  0  0  0  0  0  0  0  0  0  0
    2.7775   -4.5423   27.3739 N   0  0  0  0  0  0  0  0  0  0  0  0
    2.4054   -3.8200   28.4071 C   0  0  0  0  0  0  0  0  0  0  0  0
    0.7746   -3.6225   33.7194 C   0  0  0  0  0  0  0  0  0  0  0  0
    0.5205   -6.8294   34.9322 C   0  0  0  0  0  0  0  0  0  0  0  0
    1.7937   -6.5614   35.7250 C   0  0  0  0  0  0  0  0  0  0  0  0
    6.1251   -6.3289   35.1518 N   0  0  0  0  0  0  0  0  0  0  0  0
    8.9712   -7.2386   34.1844 H   0  0  0  0  0  0  0  0  0  0  0  0
    7.6556   -8.2858   34.7484 H   0  0  0  0  0  0  0  0  0  0  0  0
    7.8243   -7.9485   33.0172 H   0  0  0  0  0  0  0  0  0  0  0  0
    7.9285   -5.2580   32.4939 H   0  0  0  0  0  0  0  0  0  0  0  0
    6.4394   -3.2824   32.7802 H   0  0  0  0  0  0  0  0  0  0  0  0
    4.7731   -3.2717   34.6089 H   0  0  0  0  0  0  0  0  0  0  0  0
    4.3583   -6.1661   36.8697 H   0  0  0  0  0  0  0  0  0  0  0  0
    1.8399   -4.2074   38.1284 H   0  0  0  0  0  0  0  0  0  0  0  0
    3.1978   -4.8227   39.8493 H   0  0  0  0  0  0  0  0  0  0  0  0
    4.1920   -5.9031   38.8865 H   0  0  0  0  0  0  0  0  0  0  0  0
    2.8501   -7.4655   40.1102 H   0  0  0  0  0  0  0  0  0  0  0  0
    1.4189   -6.4233   40.0236 H   0  0  0  0  0  0  0  0  0  0  0  0
    2.7617   -7.9435   37.7530 H   0  0  0  0  0  0  0  0  0  0  0  0
    1.0736   -8.0767   38.2616 H   0  0  0  0  0  0  0  0  0  0  0  0
   -0.5405   -6.6958   37.4757 H   0  0  0  0  0  0  0  0  0  0  0  0
   -0.0739   -5.2832   38.3908 H   0  0  0  0  0  0  0  0  0  0  0  0
   -1.4710   -4.5830   36.5326 H   0  0  0  0  0  0  0  0  0  0  0  0
    0.1542   -4.0013   36.2549 H   0  0  0  0  0  0  0  0  0  0  0  0
   -1.4573   -6.1234   34.8616 H   0  0  0  0  0  0  0  0  0  0  0  0
   -1.2873   -4.0298   33.8630 H   0  0  0  0  0  0  0  0  0  0  0  0
    0.2265   -6.0599   32.1934 H   0  0  0  0  0  0  0  0  0  0  0  0
   -1.5022   -5.8763   32.3121 H   0  0  0  0  0  0  0  0  0  0  0  0
   -1.4986   -3.8734   31.0953 H   0  0  0  0  0  0  0  0  0  0  0  0
   -0.0596   -4.6168   30.4135 H   0  0  0  0  0  0  0  0  0  0  0  0
   -0.3170   -2.2842   32.4134 H   0  0  0  0  0  0  0  0  0  0  0  0
    0.5686   -2.4556   30.9777 H   0  0  0  0  0  0  0  0  0  0  0  0
    4.2782   -3.3073   31.1192 H   0  0  0  0  0  0  0  0  0  0  0  0
    2.8799   -2.3432   30.6048 H   0  0  0  0  0  0  0  0  0  0  0  0
    5.1573   -5.0946   29.4743 H   0  0  0  0  0  0  0  0  0  0  0  0
    1.5163   -3.2074   28.4711 H   0  0  0  0  0  0  0  0  0  0  0  0
    0.4881   -2.6774   34.2124 H   0  0  0  0  0  0  0  0  0  0  0  0
    1.5300   -4.0158   34.4052 H   0  0  0  0  0  0  0  0  0  0  0  0
    0.0211   -7.7024   35.3708 H   0  0  0  0  0  0  0  0  0  0  0  0
    0.7840   -7.1228   33.9140 H   0  0  0  0  0  0  0  0  0  0  0  0
    2.4463   -7.4390   35.6449 H   0  0  0  0  0  0  0  0  0  0  0  0
    2.3053   -5.7717   35.1786 H   0  0  0  0  0  0  0  0  0  0  0  0
  1  2  1  0
  2  3  2  0
  3  4  1  0
  4  5  2  0
  5  6  1  0
  6  7  1  0
  7  8  1  0
  8  9  2  0
  8 10  1  0
 10 11  1  0
 11 12  1  0
 12 13  1  0
 13 14  1  0
 14 15  1  0
 15 16  1  0
 16 17  1  0
 17 18  1  0
 18 19  1  0
 19 20  1  0
 20 21  1  0
 21 22  1  0
 22 23  1  0
 23 24  2  0
 23 25  1  0
 25 26  1  0
 26 27  1  0
 27 28  2  0
 28 29  1  0
 29 30  2  0
 22 31  1  0
 17 32  1  0
 32 33  1  0
  6 34  2  0
 34  2  1  0
 14 10  1  0
 31 18  1  0
 33 14  1  0
 30 26  1  0
  1 35  1  0
  1 36  1  0
  1 37  1  0
  3 38  1  0
  4 39  1  0
  5 40  1  0
  7 41  1  0
 10 42  1  0
 11 43  1  0
 11 44  1  0
 12 45  1  0
 12 46  1  0
 13 47  1  0
 13 48  1  0
 15 49  1  0
 15 50  1  0
 16 51  1  0
 16 52  1  0
 17 53  1  0
 18 54  1  0
 19 55  1  0
 19 56  1  0
 20 57  1  0
 20 58  1  0
 21 59  1  0
 21 60  1  0
 25 61  1  0
 25 62  1  0
 27 63  1  0
 30 64  1  0
 31 65  1  0
 31 66  1  0
 32 67  1  0
 32 68  1  0
 33 69  1  0
 33 70  1  0
M  END
>  <Energy>  (283) 
94.481777839383142

>  <compound_id>  (283) 
4035

>  <target_id>  (283) 
1

>  <reference_id>  (283) 
140

>  <inspiration_ids>  (283) 
[140, 200]

>  <energy_score>  (283) 
2.4643521979363925

>  <distance_score>  (283) 
3.2630762671985303

>  <path>  (283) 
/opt/xchem-fragalysis-2/maxwin/BulkDock/SCRATCH/505735/C4035-P140/C4035-P140.minimised.mol

>  <scratch_subdir>  (283) 
/opt/xchem-fragalysis-2/maxwin/BulkDock/SCRATCH/505735/C4035-P140

>  <fragmenstein_runtime>  (283) 
26.59605050086975

>  <fragmenstein_outcome>  (283) 
too moved

>  <fragmenstein_mode>  (283) 
expansion

>  <fragmenstein_error>  (283) 


$$$$
C4035-P200
     RDKit          3D

 70 74  0  0  0  0  0  0  0  0999 V2000
    0.3734   -6.5477   31.0094 C   0  0  0  0  0  0  0  0  0  0  0  0
    1.4222   -5.7146   31.6829 C   0  0  0  0  0  0  0  0  0  0  0  0
    1.7683   -4.4757   31.1585 C   0  0  0  0  0  0  0  0  0  0  0  0
    2.6848   -3.6981   31.8538 C   0  0  0  0  0  0  0  0  0  0  0  0
    3.2209   -4.1752   33.0456 C   0  0  0  0  0  0  0  0  0  0  0  0
    2.8520   -5.4381   33.4857 C   0  0  0  0  0  0  0  0  0  0  0  0
    3.3103   -5.8517   34.7243 N   0  0  0  0  0  0  0  0  0  0  0  0
    3.2352   -7.1366   35.3826 C   0  0  0  0  0  0  0  0  0  0  0  0
    2.8267   -8.1955   34.9910 O   0  0  0  0  0  0  0  0  0  0  0  0
    3.6965   -6.9637   36.8555 C   0  0  0  0  0  0  0  0  0  0  0  0
    4.3177   -8.2230   37.4838 C   0  0  0  0  0  0  0  0  0  0  0  0
    3.8256   -8.2824   38.9291 C   0  0  0  0  0  0  0  0  0  0  0  0
    3.1984   -6.9203   39.1901 C   0  0  0  0  0  0  0  0  0  0  0  0
    2.5519   -6.5354   37.8380 C   0  0  0  0  0  0  0  0  0  0  0  0
    1.2342   -7.3472   37.6788 C   0  0  0  0  0  0  0  0  0  0  0  0
    0.2361   -6.6760   36.7435 C   0  0  0  0  0  0  0  0  0  0  0  0
   -0.2159   -5.2962   37.2687 C   0  0  0  0  0  0  0  0  0  0  0  0
   -0.8722   -4.4256   36.1451 C   0  0  0  0  0  0  0  0  0  0  0  0
   -0.1384   -4.4347   34.8143 C   0  0  0  0  0  0  0  0  0  0  0  0
   -0.5527   -3.2769   33.9410 C   0  0  0  0  0  0  0  0  0  0  0  0
   -1.1975   -2.1599   34.7612 C   0  0  0  0  0  0  0  0  0  0  0  0
   -0.5473   -1.7626   36.0786 N   0  0  0  0  0  0  0  0  0  0  0  0
    0.8590   -1.5402   35.8909 C   0  0  0  0  0  0  0  0  0  0  0  0
    1.7914   -2.2973   35.9872 O   0  0  0  0  0  0  0  0  0  0  0  0
    1.1058   -0.0856   35.5033 C   0  0  0  0  0  0  0  0  0  0  0  0
    1.9025   -0.0111   34.2991 N   0  0  0  0  0  0  0  0  0  0  0  0
    1.4616    0.2444   33.0391 C   0  0  0  0  0  0  0  0  0  0  0  0
    2.4692    0.1608   32.2014 N   0  0  0  0  0  0  0  0  0  0  0  0
    3.5974   -0.1373   32.9325 N   0  0  0  0  0  0  0  0  0  0  0  0
    3.2417   -0.2280   34.1932 C   0  0  0  0  0  0  0  0  0  0  0  0
   -1.3009   -2.9876   36.5670 C   0  0  0  0  0  0  0  0  0  0  0  0
    0.8686   -4.6261   38.1419 C   0  0  0  0  0  0  0  0  0  0  0  0
    2.2886   -5.0166   37.7623 C   0  0  0  0  0  0  0  0  0  0  0  0
    1.9778   -6.2126   32.8158 N   0  0  0  0  0  0  0  0  0  0  0  0
    0.7148   -6.8586   30.0186 H   0  0  0  0  0  0  0  0  0  0  0  0
   -0.5533   -5.9751   30.9082 H   0  0  0  0  0  0  0  0  0  0  0  0
    0.1484   -7.4437   31.5958 H   0  0  0  0  0  0  0  0  0  0  0  0
    1.3195   -4.1050   30.2420 H   0  0  0  0  0  0  0  0  0  0  0  0
    2.9606   -2.7098   31.4891 H   0  0  0  0  0  0  0  0  0  0  0  0
    3.9026   -3.5496   33.6116 H   0  0  0  0  0  0  0  0  0  0  0  0
    3.7888   -5.1995   35.3276 H   0  0  0  0  0  0  0  0  0  0  0  0
    4.4879   -6.2000   36.8815 H   0  0  0  0  0  0  0  0  0  0  0  0
    5.4111   -8.1375   37.4643 H   0  0  0  0  0  0  0  0  0  0  0  0
    4.0766   -9.1448   36.9524 H   0  0  0  0  0  0  0  0  0  0  0  0
    3.0772   -9.0757   39.0376 H   0  0  0  0  0  0  0  0  0  0  0  0
    4.6374   -8.4995   39.6301 H   0  0  0  0  0  0  0  0  0  0  0  0
    3.9889   -6.2087   39.4614 H   0  0  0  0  0  0  0  0  0  0  0  0
    2.4858   -6.9490   40.0206 H   0  0  0  0  0  0  0  0  0  0  0  0
    0.7449   -7.4748   38.6537 H   0  0  0  0  0  0  0  0  0  0  0  0
    1.4438   -8.3566   37.3172 H   0  0  0  0  0  0  0  0  0  0  0  0
    0.6937   -6.6018   35.7575 H   0  0  0  0  0  0  0  0  0  0  0  0
   -0.6405   -7.3185   36.6095 H   0  0  0  0  0  0  0  0  0  0  0  0
   -1.0363   -5.4914   37.9760 H   0  0  0  0  0  0  0  0  0  0  0  0
   -1.8152   -4.9514   35.9597 H   0  0  0  0  0  0  0  0  0  0  0  0
    0.9315   -4.3648   35.0034 H   0  0  0  0  0  0  0  0  0  0  0  0
   -0.3113   -5.3727   34.2760 H   0  0  0  0  0  0  0  0  0  0  0  0
    0.3216   -2.8911   33.4070 H   0  0  0  0  0  0  0  0  0  0  0  0
   -1.2546   -3.6061   33.1663 H   0  0  0  0  0  0  0  0  0  0  0  0
   -1.0585   -1.2612   34.1394 H   0  0  0  0  0  0  0  0  0  0  0  0
   -2.3000   -2.2037   34.7729 H   0  0  0  0  0  0  0  0  0  0  0  0
    1.6555    0.4102   36.3102 H   0  0  0  0  0  0  0  0  0  0  0  0
    0.1736    0.4630   35.3356 H   0  0  0  0  0  0  0  0  0  0  0  0
    0.4374    0.4703   32.7798 H   0  0  0  0  0  0  0  0  0  0  0  0
    3.8888   -0.4594   35.0279 H   0  0  0  0  0  0  0  0  0  0  0  0
   -2.3942   -2.8457   36.5457 H   0  0  0  0  0  0  0  0  0  0  0  0
   -1.1408   -2.9228   37.6518 H   0  0  0  0  0  0  0  0  0  0  0  0
    0.7889   -3.5373   38.1400 H   0  0  0  0  0  0  0  0  0  0  0  0
    0.7045   -4.9247   39.1865 H   0  0  0  0  0  0  0  0  0  0  0  0
    2.4620   -4.6421   36.7550 H   0  0  0  0  0  0  0  0  0  0  0  0
    2.9946   -4.4712   38.4004 H   0  0  0  0  0  0  0  0  0  0  0  0
  1  2  1  0
  2  3  2  0
  3  4  1  0
  4  5  2  0
  5  6  1  0
  6  7  1  0
  7  8  1  0
  8  9  2  0
  8 10  1  0
 10 11  1  0
 11 12  1  0
 12 13  1  0
 13 14  1  0
 14 15  1  0
 15 16  1  0
 16 17  1  0
 17 18  1  0
 18 19  1  0
 19 20  1  0
 20 21  1  0
 21 22  1  0
 22 23  1  0
 23 24  2  0
 23 25  1  0
 25 26  1  0
 26 27  1  0
 27 28  2  0
 28 29  1  0
 29 30  2  0
 22 31  1  0
 17 32  1  0
 32 33  1  0
  6 34  2  0
 34  2  1  0
 14 10  1  0
 31 18  1  0
 33 14  1  0
 30 26  1  0
  1 35  1  0
  1 36  1  0
  1 37  1  0
  3 38  1  0
  4 39  1  0
  5 40  1  0
  7 41  1  0
 10 42  1  0
 11 43  1  0
 11 44  1  0
 12 45  1  0
 12 46  1  0
 13 47  1  0
 13 48  1  0
 15 49  1  0
 15 50  1  0
 16 51  1  0
 16 52  1  0
 17 53  1  0
 18 54  1  0
 19 55  1  0
 19 56  1  0
 20 57  1  0
 20 58  1  0
 21 59  1  0
 21 60  1  0
 25 61  1  0
 25 62  1  0
 27 63  1  0
 30 64  1  0
 31 65  1  0
 31 66  1  0
 32 67  1  0
 32 68  1  0
 33 69  1  0
 33 70  1  0
M  END
>  <Energy>  (284) 
97.491485443174511

>  <compound_id>  (284) 
4035

>  <target_id>  (284) 
1

>  <reference_id>  (284) 
200

>  <inspiration_ids>  (284) 
[140, 200]

>  <energy_score>  (284) 
5.474059801725716

>  <distance_score>  (284) 
4.211605663204573

>  <path>  (284) 
/opt/xchem-fragalysis-2/maxwin/BulkDock/SCRATCH/505735/C4035-P200/C4035-P200.minimised.mol

>  <scratch_subdir>  (284) 
/opt/xchem-fragalysis-2/maxwin/BulkDock/SCRATCH/505735/C4035-P200

>  <fragmenstein_runtime>  (284) 
26.37438941001892

>  <fragmenstein_outcome>  (284) 
too moved

>  <fragmenstein_mode>  (284) 
expansion

>  <fragmenstein_error>  (284) 


$$$$
C4036-P140
     RDKit          3D

 59 62  0  0  0  0  0  0  0  0999 V2000
   -2.5606   -1.6443   36.2263 C   0  0  0  0  0  0  0  0  0  0  0  0
   -1.5998   -0.5503   36.6065 C   0  0  0  0  0  0  0  0  0  0  0  0
   -2.0859    0.5557   37.3253 C   0  0  0  0  0  0  0  0  0  0  0  0
   -1.2318    1.5927   37.6935 C   0  0  0  0  0  0  0  0  0  0  0  0
    0.1081    1.5273   37.3436 C   0  0  0  0  0  0  0  0  0  0  0  0
    0.9279    2.5267   37.6970 F   0  0  0  0  0  0  0  0  0  0  0  0
    0.6136    0.4459   36.6316 C   0  0  0  0  0  0  0  0  0  0  0  0
   -0.2337   -0.6004   36.2573 C   0  0  0  0  0  0  0  0  0  0  0  0
    0.2518   -1.6979   35.5396 N   0  0  0  0  0  0  0  0  0  0  0  0
    1.5699   -1.9979   35.0506 C   0  0  0  0  0  0  0  0  0  0  0  0
    2.5747   -1.3489   35.0634 O   0  0  0  0  0  0  0  0  0  0  0  0
    1.5667   -3.3222   34.4377 C   0  0  0  0  0  0  0  0  0  0  0  0
    0.4898   -4.0962   34.4078 N   0  0  0  0  0  0  0  0  0  0  0  0
    0.8364   -5.3037   33.8596 N   0  0  0  0  0  0  0  0  0  0  0  0
    2.1005   -5.2281   33.5255 C   0  0  0  0  0  0  0  0  0  0  0  0
    2.6050   -4.0008   33.8506 N   0  0  0  0  0  0  0  0  0  0  0  0
    4.0256   -3.7009   33.8836 C   0  0  0  0  0  0  0  0  0  0  0  0
    4.5567   -2.4374   33.2143 C   0  0  0  0  0  0  0  0  0  0  0  0
    5.5347   -1.9484   33.7231 O   0  0  0  0  0  0  0  0  0  0  0  0
    3.8215   -2.0468   32.0543 N   0  0  0  0  0  0  0  0  0  0  0  0
    3.9618   -0.8406   31.1628 C   0  0  0  0  0  0  0  0  0  0  0  0
    2.9142   -0.5964   30.0834 C   0  0  0  0  0  0  0  0  0  0  0  0
    3.0648   -1.6140   28.9779 C   0  0  0  0  0  0  0  0  0  0  0  0
    3.4526   -2.9558   29.5751 C   0  0  0  0  0  0  0  0  0  0  0  0
    2.2748   -3.8681   29.8698 C   0  0  0  0  0  0  0  0  0  0  0  0
    1.1600   -3.4593   30.6122 C   0  0  0  0  0  0  0  0  0  0  0  0
    0.1535   -4.3589   30.9759 C   0  0  0  0  0  0  0  0  0  0  0  0
    0.2490   -5.6982   30.6220 C   0  0  0  0  0  0  0  0  0  0  0  0
   -0.6972   -6.7332   31.1632 C   0  0  0  0  0  0  0  0  0  0  0  0
   -1.2443   -7.5060   30.0986 O   0  0  0  0  0  0  0  0  0  0  0  0
    1.3108   -6.0844   29.8092 C   0  0  0  0  0  0  0  0  0  0  0  0
    2.3149   -5.1923   29.4316 C   0  0  0  0  0  0  0  0  0  0  0  0
    4.3784   -2.7552   30.8139 C   0  0  0  0  0  0  0  0  0  0  0  0
   -3.5652   -1.4523   36.6158 H   0  0  0  0  0  0  0  0  0  0  0  0
   -2.6371   -1.7194   35.1380 H   0  0  0  0  0  0  0  0  0  0  0  0
   -2.2288   -2.6016   36.6387 H   0  0  0  0  0  0  0  0  0  0  0  0
   -3.1359    0.6145   37.6035 H   0  0  0  0  0  0  0  0  0  0  0  0
   -1.6008    2.4473   38.2495 H   0  0  0  0  0  0  0  0  0  0  0  0
    1.6695    0.4496   36.3868 H   0  0  0  0  0  0  0  0  0  0  0  0
   -0.3780   -2.4554   35.2823 H   0  0  0  0  0  0  0  0  0  0  0  0
    2.6819   -6.0129   33.0732 H   0  0  0  0  0  0  0  0  0  0  0  0
    4.5614   -4.5526   33.4468 H   0  0  0  0  0  0  0  0  0  0  0  0
    4.2902   -3.6612   34.9488 H   0  0  0  0  0  0  0  0  0  0  0  0
    4.9950   -0.5966   30.8603 H   0  0  0  0  0  0  0  0  0  0  0  0
    3.7859   -0.0315   31.8903 H   0  0  0  0  0  0  0  0  0  0  0  0
    1.9110   -0.6190   30.5172 H   0  0  0  0  0  0  0  0  0  0  0  0
    3.0380    0.4108   29.6684 H   0  0  0  0  0  0  0  0  0  0  0  0
    2.1642   -1.6654   28.3565 H   0  0  0  0  0  0  0  0  0  0  0  0
    3.8785   -1.2796   28.3205 H   0  0  0  0  0  0  0  0  0  0  0  0
    4.0588   -3.4640   28.8114 H   0  0  0  0  0  0  0  0  0  0  0  0
    1.0685   -2.4454   30.9867 H   0  0  0  0  0  0  0  0  0  0  0  0
   -0.6546   -4.0116   31.6178 H   0  0  0  0  0  0  0  0  0  0  0  0
   -0.1725   -7.4052   31.8490 H   0  0  0  0  0  0  0  0  0  0  0  0
   -1.5194   -6.2724   31.7142 H   0  0  0  0  0  0  0  0  0  0  0  0
   -1.2771   -6.9263   29.3146 H   0  0  0  0  0  0  0  0  0  0  0  0
    1.3556   -7.1212   29.4904 H   0  0  0  0  0  0  0  0  0  0  0  0
    3.1404   -5.5474   28.8204 H   0  0  0  0  0  0  0  0  0  0  0  0
    5.4015   -2.4384   30.5411 H   0  0  0  0  0  0  0  0  0  0  0  0
    4.5790   -3.7789   31.1701 H   0  0  0  0  0  0  0  0  0  0  0  0
  1  2  1  0
  2  3  2  0
  3  4  1  0
  4  5  2  0
  5  6  1  0
  5  7  1  0
  7  8  2  0
  8  9  1  0
  9 10  1  0
 10 11  2  0
 10 12  1  0
 12 13  2  0
 13 14  1  0
 14 15  2  0
 15 16  1  0
 16 17  1  0
 17 18  1  0
 18 19  2  0
 18 20  1  0
 20 21  1  0
 21 22  1  0
 22 23  1  0
 23 24  1  0
 24 25  1  0
 25 26  2  0
 26 27  1  0
 27 28  2  0
 28 29  1  0
 29 30  1  0
 28 31  1  0
 31 32  2  0
 24 33  1  0
  8  2  1  0
 16 12  1  0
 33 20  1  0
 32 25  1  0
  1 34  1  0
  1 35  1  0
  1 36  1  0
  3 37  1  0
  4 38  1  0
  7 39  1  0
  9 40  1  0
 15 41  1  0
 17 42  1  0
 17 43  1  0
 21 44  1  0
 21 45  1  0
 22 46  1  0
 22 47  1  0
 23 48  1  0
 23 49  1  0
 24 50  1  0
 26 51  1  0
 27 52  1  0
 29 53  1  0
 29 54  1  0
 30 55  1  0
 31 56  1  0
 32 57  1  0
 33 58  1  0
 33 59  1  0
M  END
>  <Energy>  (285) 
107.73387540648105

>  <compound_id>  (285) 
4036

>  <target_id>  (285) 
1

>  <reference_id>  (285) 
140

>  <inspiration_ids>  (285) 
[140, 201]

>  <energy_score>  (285) 
14.722647949993032

>  <distance_score>  (285) 
4.8816887722518825

>  <path>  (285) 
/opt/xchem-fragalysis-2/maxwin/BulkDock/SCRATCH/505735/C4036-P140/C4036-P140.minimised.mol

>  <scratch_subdir>  (285) 
/opt/xchem-fragalysis-2/maxwin/BulkDock/SCRATCH/505735/C4036-P140

>  <fragmenstein_runtime>  (285) 
40.45878720283508

>  <fragmenstein_outcome>  (285) 
too moved

>  <fragmenstein_mode>  (285) 
expansion

>  <fragmenstein_error>  (285) 


$$$$
C4036-P201
     RDKit          3D

 59 62  0  0  0  0  0  0  0  0999 V2000
   -2.6208   -1.5956   35.3660 C   0  0  0  0  0  0  0  0  0  0  0  0
   -1.6660   -0.4583   35.6067 C   0  0  0  0  0  0  0  0  0  0  0  0
   -2.1792    0.7672   36.0693 C   0  0  0  0  0  0  0  0  0  0  0  0
   -1.3312    1.8466   36.3060 C   0  0  0  0  0  0  0  0  0  0  0  0
    0.0298    1.7035   36.0815 C   0  0  0  0  0  0  0  0  0  0  0  0
    0.8450    2.7421   36.3088 F   0  0  0  0  0  0  0  0  0  0  0  0
    0.5618    0.5029   35.6237 C   0  0  0  0  0  0  0  0  0  0  0  0
   -0.2793   -0.5870   35.3814 C   0  0  0  0  0  0  0  0  0  0  0  0
    0.2380   -1.8011   34.9163 N   0  0  0  0  0  0  0  0  0  0  0  0
    1.5858   -2.1989   34.6174 C   0  0  0  0  0  0  0  0  0  0  0  0
    2.6217   -1.6194   34.7640 O   0  0  0  0  0  0  0  0  0  0  0  0
    1.5899   -3.5563   34.0801 C   0  0  0  0  0  0  0  0  0  0  0  0
    0.5028   -4.3133   34.0258 N   0  0  0  0  0  0  0  0  0  0  0  0
    0.8638   -5.5632   33.5918 N   0  0  0  0  0  0  0  0  0  0  0  0
    2.1497   -5.5310   33.3449 C   0  0  0  0  0  0  0  0  0  0  0  0
    2.6475   -4.2843   33.5955 N   0  0  0  0  0  0  0  0  0  0  0  0
    4.0648   -3.9663   33.5984 C   0  0  0  0  0  0  0  0  0  0  0  0
    4.5447   -2.6960   32.9000 C   0  0  0  0  0  0  0  0  0  0  0  0
    5.4463   -2.0997   33.4337 O   0  0  0  0  0  0  0  0  0  0  0  0
    3.8316   -2.4147   31.6936 N   0  0  0  0  0  0  0  0  0  0  0  0
    3.8999   -1.2298   30.7661 C   0  0  0  0  0  0  0  0  0  0  0  0
    2.8714   -1.1299   29.6445 C   0  0  0  0  0  0  0  0  0  0  0  0
    3.1960   -2.1381   28.5678 C   0  0  0  0  0  0  0  0  0  0  0  0
    3.6928   -3.4201   29.2149 C   0  0  0  0  0  0  0  0  0  0  0  0
    2.5985   -4.4479   29.4419 C   0  0  0  0  0  0  0  0  0  0  0  0
    1.4793   -4.1882   30.2399 C   0  0  0  0  0  0  0  0  0  0  0  0
    0.5461   -5.1854   30.5316 C   0  0  0  0  0  0  0  0  0  0  0  0
    0.7150   -6.4763   30.0456 C   0  0  0  0  0  0  0  0  0  0  0  0
   -0.1510   -7.6130   30.5258 C   0  0  0  0  0  0  0  0  0  0  0  0
   -1.5254   -7.2715   30.5321 O   0  0  0  0  0  0  0  0  0  0  0  0
    1.7722   -6.7050   29.1537 C   0  0  0  0  0  0  0  0  0  0  0  0
    2.7087   -5.7132   28.8585 C   0  0  0  0  0  0  0  0  0  0  0  0
    4.5127   -3.1066   30.5046 C   0  0  0  0  0  0  0  0  0  0  0  0
   -3.6505   -1.3216   35.6193 H   0  0  0  0  0  0  0  0  0  0  0  0
   -2.6057   -1.8821   34.3098 H   0  0  0  0  0  0  0  0  0  0  0  0
   -2.3477   -2.4530   35.9889 H   0  0  0  0  0  0  0  0  0  0  0  0
   -3.2457    0.8862   36.2486 H   0  0  0  0  0  0  0  0  0  0  0  0
   -1.7212    2.7943   36.6628 H   0  0  0  0  0  0  0  0  0  0  0  0
    1.6338    0.4514   35.4665 H   0  0  0  0  0  0  0  0  0  0  0  0
   -0.3874   -2.5855   34.7354 H   0  0  0  0  0  0  0  0  0  0  0  0
    2.7477   -6.3563   32.9973 H   0  0  0  0  0  0  0  0  0  0  0  0
    4.3489   -3.9080   34.6568 H   0  0  0  0  0  0  0  0  0  0  0  0
    4.6053   -4.8132   33.1603 H   0  0  0  0  0  0  0  0  0  0  0  0
    4.9163   -0.8992   30.4903 H   0  0  0  0  0  0  0  0  0  0  0  0
    3.6198   -0.4174   31.4565 H   0  0  0  0  0  0  0  0  0  0  0  0
    1.8617   -1.2780   30.0379 H   0  0  0  0  0  0  0  0  0  0  0  0
    2.8855   -0.1212   29.2149 H   0  0  0  0  0  0  0  0  0  0  0  0
    2.3431   -2.2976   27.8984 H   0  0  0  0  0  0  0  0  0  0  0  0
    4.0049   -1.7247   27.9504 H   0  0  0  0  0  0  0  0  0  0  0  0
    4.4024   -3.8696   28.5053 H   0  0  0  0  0  0  0  0  0  0  0  0
    1.3260   -3.2188   30.7043 H   0  0  0  0  0  0  0  0  0  0  0  0
   -0.2781   -4.9503   31.2034 H   0  0  0  0  0  0  0  0  0  0  0  0
   -0.0391   -8.4813   29.8690 H   0  0  0  0  0  0  0  0  0  0  0  0
    0.1480   -7.9060   31.5364 H   0  0  0  0  0  0  0  0  0  0  0  0
   -1.7226   -6.9713   31.4396 H   0  0  0  0  0  0  0  0  0  0  0  0
    1.8696   -7.6824   28.6912 H   0  0  0  0  0  0  0  0  0  0  0  0
    3.5305   -5.9398   28.1831 H   0  0  0  0  0  0  0  0  0  0  0  0
    5.5197   -2.7075   30.2843 H   0  0  0  0  0  0  0  0  0  0  0  0
    4.7772   -4.1001   30.9035 H   0  0  0  0  0  0  0  0  0  0  0  0
  1  2  1  0
  2  3  2  0
  3  4  1  0
  4  5  2  0
  5  6  1  0
  5  7  1  0
  7  8  2  0
  8  9  1  0
  9 10  1  0
 10 11  2  0
 10 12  1  0
 12 13  2  0
 13 14  1  0
 14 15  2  0
 15 16  1  0
 16 17  1  0
 17 18  1  0
 18 19  2  0
 18 20  1  0
 20 21  1  0
 21 22  1  0
 22 23  1  0
 23 24  1  0
 24 25  1  0
 25 26  2  0
 26 27  1  0
 27 28  2  0
 28 29  1  0
 29 30  1  0
 28 31  1  0
 31 32  2  0
 24 33  1  0
  8  2  1  0
 16 12  1  0
 33 20  1  0
 32 25  1  0
  1 34  1  0
  1 35  1  0
  1 36  1  0
  3 37  1  0
  4 38  1  0
  7 39  1  0
  9 40  1  0
 15 41  1  0
 17 42  1  0
 17 43  1  0
 21 44  1  0
 21 45  1  0
 22 46  1  0
 22 47  1  0
 23 48  1  0
 23 49  1  0
 24 50  1  0
 26 51  1  0
 27 52  1  0
 29 53  1  0
 29 54  1  0
 30 55  1  0
 31 56  1  0
 32 57  1  0
 33 58  1  0
 33 59  1  0
M  END
>  <Energy>  (286) 
109.27105802000234

>  <compound_id>  (286) 
4036

>  <target_id>  (286) 
1

>  <reference_id>  (286) 
201

>  <inspiration_ids>  (286) 
[140, 201]

>  <energy_score>  (286) 
16.25983056351444

>  <distance_score>  (286) 
4.72400406089102

>  <path>  (286) 
/opt/xchem-fragalysis-2/maxwin/BulkDock/SCRATCH/505735/C4036-P201/C4036-P201.minimised.mol

>  <scratch_subdir>  (286) 
/opt/xchem-fragalysis-2/maxwin/BulkDock/SCRATCH/505735/C4036-P201

>  <fragmenstein_runtime>  (286) 
44.28206181526184

>  <fragmenstein_outcome>  (286) 
too moved

>  <fragmenstein_mode>  (286) 
expansion

>  <fragmenstein_error>  (286) 


$$$$
C4037-P140
     RDKit          3D

 59 62  0  0  0  0  0  0  0  0999 V2000
    2.9466   -5.2226   28.6161 C   0  0  0  0  0  0  0  0  0  0  0  0
    2.7812   -3.7953   28.1159 C   0  0  0  0  0  0  0  0  0  0  0  0
    3.1124   -2.8148   29.2263 C   0  0  0  0  0  0  0  0  0  0  0  0
    4.1928   -2.2972   29.2613 O   0  0  0  0  0  0  0  0  0  0  0  0
    2.0130   -2.7536   30.1471 N   0  0  0  0  0  0  0  0  0  0  0  0
    1.9002   -2.1523   31.4013 C   0  0  0  0  0  0  0  0  0  0  0  0
    0.6857   -2.3717   32.0563 C   0  0  0  0  0  0  0  0  0  0  0  0
    0.5877   -2.1822   33.4350 C   0  0  0  0  0  0  0  0  0  0  0  0
    1.7002   -1.7654   34.1867 C   0  0  0  0  0  0  0  0  0  0  0  0
    1.7451   -2.0542   35.6411 C   0  0  0  0  0  0  0  0  0  0  0  0
    2.8139   -2.8091   36.1678 C   0  0  0  0  0  0  0  0  0  0  0  0
    2.6907   -3.5206   37.3670 C   0  0  0  0  0  0  0  0  0  0  0  0
    1.4788   -3.5093   38.0590 C   0  0  0  0  0  0  0  0  0  0  0  0
    1.1124   -4.5515   39.1058 C   0  0  0  0  0  0  0  0  0  0  0  0
    2.1615   -5.6023   39.4557 C   0  0  0  0  0  0  0  0  0  0  0  0
    2.0570   -6.7405   38.4620 C   0  0  0  0  0  0  0  0  0  0  0  0
    0.5809   -7.1209   38.2688 C   0  0  0  0  0  0  0  0  0  0  0  0
   -0.3421   -6.1923   37.4838 N   0  0  0  0  0  0  0  0  0  0  0  0
    0.1697   -5.9946   36.1519 C   0  0  0  0  0  0  0  0  0  0  0  0
    0.9123   -5.1600   35.7192 O   0  0  0  0  0  0  0  0  0  0  0  0
   -0.4786   -7.0067   35.2167 C   0  0  0  0  0  0  0  0  0  0  0  0
   -0.3822   -6.7533   33.7824 N   0  0  0  0  0  0  0  0  0  0  0  0
    0.4979   -6.0063   33.0620 C   0  0  0  0  0  0  0  0  0  0  0  0
    0.2520   -6.1446   31.7758 N   0  0  0  0  0  0  0  0  0  0  0  0
   -0.8042   -7.0103   31.6428 N   0  0  0  0  0  0  0  0  0  0  0  0
   -1.1644   -7.3754   32.8500 C   0  0  0  0  0  0  0  0  0  0  0  0
   -0.1968   -5.3381   38.7491 C   0  0  0  0  0  0  0  0  0  0  0  0
    0.5148   -2.5576   37.6705 C   0  0  0  0  0  0  0  0  0  0  0  0
    0.6400   -1.8476   36.4704 C   0  0  0  0  0  0  0  0  0  0  0  0
    2.8342   -1.3446   33.4834 C   0  0  0  0  0  0  0  0  0  0  0  0
    2.9423   -1.5453   32.1052 C   0  0  0  0  0  0  0  0  0  0  0  0
    4.1586   -1.2052   31.5861 O   0  0  0  0  0  0  0  0  0  0  0  0
    2.2067   -5.4634   29.3861 H   0  0  0  0  0  0  0  0  0  0  0  0
    2.8270   -5.9320   27.7923 H   0  0  0  0  0  0  0  0  0  0  0  0
    3.9405   -5.3732   29.0506 H   0  0  0  0  0  0  0  0  0  0  0  0
    3.4471   -3.6048   27.2675 H   0  0  0  0  0  0  0  0  0  0  0  0
    1.7575   -3.6299   27.7776 H   0  0  0  0  0  0  0  0  0  0  0  0
    1.2228   -3.2528   29.7524 H   0  0  0  0  0  0  0  0  0  0  0  0
   -0.1570   -2.8228   31.5374 H   0  0  0  0  0  0  0  0  0  0  0  0
   -0.3194   -2.5178   33.9353 H   0  0  0  0  0  0  0  0  0  0  0  0
    3.7073   -2.9782   35.5688 H   0  0  0  0  0  0  0  0  0  0  0  0
    3.5082   -4.1785   37.6410 H   0  0  0  0  0  0  0  0  0  0  0  0
    0.9172   -3.9783   40.0235 H   0  0  0  0  0  0  0  0  0  0  0  0
    3.1787   -5.2054   39.5210 H   0  0  0  0  0  0  0  0  0  0  0  0
    1.9318   -6.0017   40.4533 H   0  0  0  0  0  0  0  0  0  0  0  0
    2.5157   -6.4698   37.5056 H   0  0  0  0  0  0  0  0  0  0  0  0
    2.6117   -7.6065   38.8419 H   0  0  0  0  0  0  0  0  0  0  0  0
    0.6284   -8.0063   37.6221 H   0  0  0  0  0  0  0  0  0  0  0  0
    0.1149   -7.5389   39.1770 H   0  0  0  0  0  0  0  0  0  0  0  0
   -1.5471   -7.0761   35.4455 H   0  0  0  0  0  0  0  0  0  0  0  0
   -0.0088   -7.9749   35.3809 H   0  0  0  0  0  0  0  0  0  0  0  0
    1.2843   -5.3903   33.4775 H   0  0  0  0  0  0  0  0  0  0  0  0
   -1.9497   -8.0768   33.0910 H   0  0  0  0  0  0  0  0  0  0  0  0
   -0.6327   -5.8248   39.6398 H   0  0  0  0  0  0  0  0  0  0  0  0
   -0.9618   -4.5733   38.5521 H   0  0  0  0  0  0  0  0  0  0  0  0
   -0.4082   -2.4426   38.2346 H   0  0  0  0  0  0  0  0  0  0  0  0
   -0.1903   -1.2307   36.1355 H   0  0  0  0  0  0  0  0  0  0  0  0
    3.7024   -0.9703   34.0225 H   0  0  0  0  0  0  0  0  0  0  0  0
    4.1961   -1.4532   30.6402 H   0  0  0  0  0  0  0  0  0  0  0  0
  1  2  1  0
  2  3  1  0
  3  4  2  0
  3  5  1  0
  5  6  1  0
  6  7  2  0
  7  8  1  0
  8  9  2  0
  9 10  1  0
 10 11  2  0
 11 12  1  0
 12 13  2  0
 13 14  1  0
 14 15  1  0
 15 16  1  0
 16 17  1  0
 17 18  1  0
 18 19  1  0
 19 20  2  0
 19 21  1  0
 21 22  1  0
 22 23  1  0
 23 24  2  0
 24 25  1  0
 25 26  2  0
 18 27  1  0
 13 28  1  0
 28 29  2  0
  9 30  1  0
 30 31  2  0
 31 32  1  0
 31  6  1  0
 29 10  1  0
 27 14  1  0
 26 22  1  0
  1 33  1  0
  1 34  1  0
  1 35  1  0
  2 36  1  0
  2 37  1  0
  5 38  1  0
  7 39  1  0
  8 40  1  0
 11 41  1  0
 12 42  1  0
 14 43  1  0
 15 44  1  0
 15 45  1  0
 16 46  1  0
 16 47  1  0
 17 48  1  0
 17 49  1  0
 21 50  1  0
 21 51  1  0
 23 52  1  0
 26 53  1  0
 27 54  1  0
 27 55  1  0
 28 56  1  0
 29 57  1  0
 30 58  1  0
 32 59  1  0
M  END
>  <Energy>  (287) 
125.11500764319365

>  <compound_id>  (287) 
4037

>  <target_id>  (287) 
1

>  <reference_id>  (287) 
140

>  <inspiration_ids>  (287) 
[140, 202]

>  <energy_score>  (287) 
0.5149291195429839

>  <distance_score>  (287) 
3.692179684199035

>  <path>  (287) 
/opt/xchem-fragalysis-2/maxwin/BulkDock/SCRATCH/505735/C4037-P140/C4037-P140.minimised.mol

>  <scratch_subdir>  (287) 
/opt/xchem-fragalysis-2/maxwin/BulkDock/SCRATCH/505735/C4037-P140

>  <fragmenstein_runtime>  (287) 
12.232596158981323

>  <fragmenstein_outcome>  (287) 
too moved

>  <fragmenstein_mode>  (287) 
expansion

>  <fragmenstein_error>  (287) 


$$$$
C4037-P202
     RDKit          3D

 59 62  0  0  0  0  0  0  0  0999 V2000
   -1.0853   -1.0059   28.1357 C   0  0  0  0  0  0  0  0  0  0  0  0
   -0.9084    0.1022   29.1518 C   0  0  0  0  0  0  0  0  0  0  0  0
   -1.3607   -0.3231   30.5361 C   0  0  0  0  0  0  0  0  0  0  0  0
   -2.2069    0.3100   31.0979 O   0  0  0  0  0  0  0  0  0  0  0  0
   -0.6289   -1.4789   30.9522 N   0  0  0  0  0  0  0  0  0  0  0  0
   -0.6112   -2.1624   32.1653 C   0  0  0  0  0  0  0  0  0  0  0  0
    0.2898   -3.2257   32.2479 C   0  0  0  0  0  0  0  0  0  0  0  0
    0.4291   -3.9455   33.4353 C   0  0  0  0  0  0  0  0  0  0  0  0
   -0.3111   -3.6127   34.5776 C   0  0  0  0  0  0  0  0  0  0  0  0
   -0.0778   -4.2909   35.8691 C   0  0  0  0  0  0  0  0  0  0  0  0
   -0.0465   -5.6881   35.9891 C   0  0  0  0  0  0  0  0  0  0  0  0
    0.3274   -6.3164   37.1869 C   0  0  0  0  0  0  0  0  0  0  0  0
    0.6826   -5.5622   38.3077 C   0  0  0  0  0  0  0  0  0  0  0  0
    1.2798   -6.1549   39.5781 C   0  0  0  0  0  0  0  0  0  0  0  0
    1.1539   -7.6613   39.7787 C   0  0  0  0  0  0  0  0  0  0  0  0
    2.3021   -8.3708   39.0846 C   0  0  0  0  0  0  0  0  0  0  0  0
    3.6046   -7.5627   39.1724 C   0  0  0  0  0  0  0  0  0  0  0  0
    3.5943   -6.2194   38.4478 N   0  0  0  0  0  0  0  0  0  0  0  0
    4.9109   -5.8682   38.0487 C   0  0  0  0  0  0  0  0  0  0  0  0
    5.7588   -5.2318   38.6205 O   0  0  0  0  0  0  0  0  0  0  0  0
    5.2090   -6.3186   36.6173 C   0  0  0  0  0  0  0  0  0  0  0  0
    4.0940   -6.8076   35.8279 N   0  0  0  0  0  0  0  0  0  0  0  0
    3.2670   -6.0915   35.0199 C   0  0  0  0  0  0  0  0  0  0  0  0
    2.4932   -6.9166   34.3440 N   0  0  0  0  0  0  0  0  0  0  0  0
    2.7949   -8.1957   34.7473 N   0  0  0  0  0  0  0  0  0  0  0  0
    3.7791   -8.1126   35.6128 C   0  0  0  0  0  0  0  0  0  0  0  0
    2.7900   -5.8169   39.6640 C   0  0  0  0  0  0  0  0  0  0  0  0
    0.5584   -4.1654   38.2195 C   0  0  0  0  0  0  0  0  0  0  0  0
    0.1923   -3.5426   37.0224 C   0  0  0  0  0  0  0  0  0  0  0  0
   -1.2363   -2.5674   34.4669 C   0  0  0  0  0  0  0  0  0  0  0  0
   -1.3975   -1.8553   33.2793 C   0  0  0  0  0  0  0  0  0  0  0  0
   -2.3399   -0.8685   33.3444 O   0  0  0  0  0  0  0  0  0  0  0  0
   -1.1173   -0.5528   27.1446 H   0  0  0  0  0  0  0  0  0  0  0  0
   -0.2556   -1.7178   28.1631 H   0  0  0  0  0  0  0  0  0  0  0  0
   -2.0165   -1.5586   28.2859 H   0  0  0  0  0  0  0  0  0  0  0  0
   -1.5139    0.9664   28.8532 H   0  0  0  0  0  0  0  0  0  0  0  0
    0.1336    0.4370   29.1947 H   0  0  0  0  0  0  0  0  0  0  0  0
    0.0683   -1.6974   30.2514 H   0  0  0  0  0  0  0  0  0  0  0  0
    0.9048   -3.5076   31.3976 H   0  0  0  0  0  0  0  0  0  0  0  0
    1.1470   -4.7604   33.4701 H   0  0  0  0  0  0  0  0  0  0  0  0
   -0.2671   -6.3112   35.1238 H   0  0  0  0  0  0  0  0  0  0  0  0
    0.3760   -7.4008   37.1863 H   0  0  0  0  0  0  0  0  0  0  0  0
    0.7606   -5.6748   40.4192 H   0  0  0  0  0  0  0  0  0  0  0  0
    0.1834   -8.0574   39.4628 H   0  0  0  0  0  0  0  0  0  0  0  0
    1.2355   -7.8709   40.8540 H   0  0  0  0  0  0  0  0  0  0  0  0
    2.4496   -9.3611   39.5298 H   0  0  0  0  0  0  0  0  0  0  0  0
    2.0589   -8.5348   38.0312 H   0  0  0  0  0  0  0  0  0  0  0  0
    4.0931   -7.5720   40.1623 H   0  0  0  0  0  0  0  0  0  0  0  0
    4.3257   -8.1677   38.5989 H   0  0  0  0  0  0  0  0  0  0  0  0
    5.9639   -7.1118   36.6569 H   0  0  0  0  0  0  0  0  0  0  0  0
    5.6313   -5.4675   36.0704 H   0  0  0  0  0  0  0  0  0  0  0  0
    3.2671   -5.0117   34.9585 H   0  0  0  0  0  0  0  0  0  0  0  0
    4.2885   -8.9382   36.0892 H   0  0  0  0  0  0  0  0  0  0  0  0
    2.8666   -4.7187   39.6145 H   0  0  0  0  0  0  0  0  0  0  0  0
    3.2444   -5.9803   40.6569 H   0  0  0  0  0  0  0  0  0  0  0  0
    0.7958   -3.5367   39.0758 H   0  0  0  0  0  0  0  0  0  0  0  0
    0.1682   -2.4550   36.9883 H   0  0  0  0  0  0  0  0  0  0  0  0
   -1.8572   -2.3021   35.3207 H   0  0  0  0  0  0  0  0  0  0  0  0
   -2.3794   -0.4038   32.4855 H   0  0  0  0  0  0  0  0  0  0  0  0
  1  2  1  0
  2  3  1  0
  3  4  2  0
  3  5  1  0
  5  6  1  0
  6  7  2  0
  7  8  1  0
  8  9  2  0
  9 10  1  0
 10 11  2  0
 11 12  1  0
 12 13  2  0
 13 14  1  0
 14 15  1  0
 15 16  1  0
 16 17  1  0
 17 18  1  0
 18 19  1  0
 19 20  2  0
 19 21  1  0
 21 22  1  0
 22 23  1  0
 23 24  2  0
 24 25  1  0
 25 26  2  0
 18 27  1  0
 13 28  1  0
 28 29  2  0
  9 30  1  0
 30 31  2  0
 31 32  1  0
 31  6  1  0
 29 10  1  0
 27 14  1  0
 26 22  1  0
  1 33  1  0
  1 34  1  0
  1 35  1  0
  2 36  1  0
  2 37  1  0
  5 38  1  0
  7 39  1  0
  8 40  1  0
 11 41  1  0
 12 42  1  0
 14 43  1  0
 15 44  1  0
 15 45  1  0
 16 46  1  0
 16 47  1  0
 17 48  1  0
 17 49  1  0
 21 50  1  0
 21 51  1  0
 23 52  1  0
 26 53  1  0
 27 54  1  0
 27 55  1  0
 28 56  1  0
 29 57  1  0
 30 58  1  0
 32 59  1  0
M  END
>  <Energy>  (288) 
102.65317444078271

>  <compound_id>  (288) 
4037

>  <target_id>  (288) 
1

>  <reference_id>  (288) 
202

>  <inspiration_ids>  (288) 
[140, 202]

>  <energy_score>  (288) 
-21.94690408286698

>  <distance_score>  (288) 
4.262160588939559

>  <path>  (288) 
/opt/xchem-fragalysis-2/maxwin/BulkDock/SCRATCH/505735/C4037-P202/C4037-P202.minimised.mol

>  <scratch_subdir>  (288) 
/opt/xchem-fragalysis-2/maxwin/BulkDock/SCRATCH/505735/C4037-P202

>  <fragmenstein_runtime>  (288) 
12.143080234527588

>  <fragmenstein_outcome>  (288) 
too moved

>  <fragmenstein_mode>  (288) 
expansion

>  <fragmenstein_error>  (288) 


$$$$
C886-P141
     RDKit          3D

 47 50  0  0  0  0  0  0  0  0999 V2000
   -0.4210   -3.3020   33.9196 N   0  0  0  0  0  0  0  0  0  0  0  0
   -0.3952   -4.6480   33.8495 C   0  0  0  0  0  0  0  0  0  0  0  0
   -0.5857   -5.4500   34.8742 N   0  0  0  0  0  0  0  0  0  0  0  0
   -0.7015   -6.7262   34.4160 N   0  0  0  0  0  0  0  0  0  0  0  0
   -0.5269   -6.6895   33.1196 C   0  0  0  0  0  0  0  0  0  0  0  0
   -0.6133   -7.7289   32.1683 C   0  0  0  0  0  0  0  0  0  0  0  0
   -0.1904   -7.5100   30.9197 C   0  0  0  0  0  0  0  0  0  0  0  0
    0.2610   -6.1993   30.5270 C   0  0  0  0  0  0  0  0  0  0  0  0
    0.1664   -5.1273   31.3538 C   0  0  0  0  0  0  0  0  0  0  0  0
    0.3373   -3.8264   30.5746 C   0  0  0  0  0  0  0  0  0  0  0  0
    0.5462   -3.9512   29.3949 O   0  0  0  0  0  0  0  0  0  0  0  0
    0.1282   -2.6690   31.3481 N   0  0  0  0  0  0  0  0  0  0  0  0
    1.4787   -2.1451   31.9029 C   0  0  0  0  0  0  0  0  0  0  0  0
    2.5930   -1.7280   30.9085 C   0  0  0  0  0  0  0  0  0  0  0  0
    2.1632   -0.5211   30.0844 C   0  0  0  0  0  0  0  0  0  0  0  0
    0.7377   -0.8106   29.6541 C   0  0  0  0  0  0  0  0  0  0  0  0
   -0.0178    0.2283   28.8615 C   0  0  0  0  0  0  0  0  0  0  0  0
   -1.0415   -0.2405   28.0193 C   0  0  0  0  0  0  0  0  0  0  0  0
   -1.7878    0.6318   27.2347 C   0  0  0  0  0  0  0  0  0  0  0  0
   -1.5447    2.0046   27.2710 C   0  0  0  0  0  0  0  0  0  0  0  0
   -2.3689    2.9196   26.4077 C   0  0  0  0  0  0  0  0  0  0  0  0
   -2.1616    2.5737   25.0391 O   0  0  0  0  0  0  0  0  0  0  0  0
   -0.5363    2.4821   28.1192 C   0  0  0  0  0  0  0  0  0  0  0  0
    0.2239    1.6023   28.9075 C   0  0  0  0  0  0  0  0  0  0  0  0
   -0.0158   -1.2243   30.9417 C   0  0  0  0  0  0  0  0  0  0  0  0
   -0.2144   -5.3907   32.6886 N   0  0  0  0  0  0  0  0  0  0  0  0
   -0.7196   -2.8181   33.0738 H   0  0  0  0  0  0  0  0  0  0  0  0
   -0.9391   -2.9716   34.7325 H   0  0  0  0  0  0  0  0  0  0  0  0
   -1.0136   -8.6835   32.4850 H   0  0  0  0  0  0  0  0  0  0  0  0
   -0.2302   -8.2974   30.1739 H   0  0  0  0  0  0  0  0  0  0  0  0
    0.5721   -6.1052   29.4970 H   0  0  0  0  0  0  0  0  0  0  0  0
    1.9025   -3.0238   32.4139 H   0  0  0  0  0  0  0  0  0  0  0  0
    1.3551   -1.4286   32.7322 H   0  0  0  0  0  0  0  0  0  0  0  0
    3.5111   -1.4935   31.4587 H   0  0  0  0  0  0  0  0  0  0  0  0
    2.8275   -2.5663   30.2416 H   0  0  0  0  0  0  0  0  0  0  0  0
    2.2166    0.3823   30.7036 H   0  0  0  0  0  0  0  0  0  0  0  0
    2.8271   -0.3715   29.2262 H   0  0  0  0  0  0  0  0  0  0  0  0
    0.8101   -1.6671   28.9736 H   0  0  0  0  0  0  0  0  0  0  0  0
   -1.2515   -1.3079   27.9340 H   0  0  0  0  0  0  0  0  0  0  0  0
   -2.5403    0.2231   26.5639 H   0  0  0  0  0  0  0  0  0  0  0  0
   -2.0869    3.9679   26.5437 H   0  0  0  0  0  0  0  0  0  0  0  0
   -3.4299    2.8079   26.6568 H   0  0  0  0  0  0  0  0  0  0  0  0
   -3.0218    2.7045   24.5917 H   0  0  0  0  0  0  0  0  0  0  0  0
   -0.3348    3.5507   28.1712 H   0  0  0  0  0  0  0  0  0  0  0  0
    0.9999    2.0175   29.5437 H   0  0  0  0  0  0  0  0  0  0  0  0
   -1.0834   -1.2220   30.6685 H   0  0  0  0  0  0  0  0  0  0  0  0
   -0.0138   -0.4783   31.7550 H   0  0  0  0  0  0  0  0  0  0  0  0
  1  2  1  0
  2  3  2  0
  3  4  1  0
  4  5  2  0
  5  6  1  0
  6  7  2  0
  7  8  1  0
  8  9  2  0
  9 10  1  0
 10 11  2  0
 10 12  1  0
 12 13  1  0
 13 14  1  0
 14 15  1  0
 15 16  1  0
 16 17  1  0
 17 18  2  0
 18 19  1  0
 19 20  2  0
 20 21  1  0
 21 22  1  0
 20 23  1  0
 23 24  2  0
 16 25  1  0
  9 26  1  0
 26  2  1  0
 26  5  1  0
 25 12  1  0
 24 17  1  0
  1 27  1  0
  1 28  1  0
  6 29  1  0
  7 30  1  0
  8 31  1  0
 13 32  1  0
 13 33  1  0
 14 34  1  0
 14 35  1  0
 15 36  1  0
 15 37  1  0
 16 38  1  0
 18 39  1  0
 19 40  1  0
 21 41  1  0
 21 42  1  0
 22 43  1  0
 23 44  1  0
 24 45  1  0
 25 46  1  0
 25 47  1  0
M  END
>  <Energy>  (289) 
126.295212506797

>  <compound_id>  (289) 
886

>  <target_id>  (289) 
1

>  <reference_id>  (289) 
141

>  <inspiration_ids>  (289) 
[141, 40]

>  <energy_score>  (289) 
26.69792441494178

>  <distance_score>  (289) 
2.4371791204317668

>  <path>  (289) 
/opt/xchem-fragalysis-2/maxwin/BulkDock/SCRATCH/505735/C886-P141/C886-P141.minimised.mol

>  <scratch_subdir>  (289) 
/opt/xchem-fragalysis-2/maxwin/BulkDock/SCRATCH/505735/C886-P141

>  <fragmenstein_runtime>  (289) 
7.886488437652588

>  <fragmenstein_outcome>  (289) 
too moved

>  <fragmenstein_mode>  (289) 
expansion

>  <fragmenstein_error>  (289) 


$$$$
C886-P40
     RDKit          3D

 47 50  0  0  0  0  0  0  0  0999 V2000
   -0.6765   -3.5709   33.1273 N   0  0  0  0  0  0  0  0  0  0  0  0
   -0.6188   -4.9113   33.0353 C   0  0  0  0  0  0  0  0  0  0  0  0
   -0.9225   -5.7299   34.0179 N   0  0  0  0  0  0  0  0  0  0  0  0
   -0.9489   -6.9992   33.5401 N   0  0  0  0  0  0  0  0  0  0  0  0
   -0.6116   -6.9432   32.2782 C   0  0  0  0  0  0  0  0  0  0  0  0
   -0.5616   -7.9720   31.3182 C   0  0  0  0  0  0  0  0  0  0  0  0
   -0.0456   -7.7226   30.1096 C   0  0  0  0  0  0  0  0  0  0  0  0
    0.4086   -6.3985   29.7642 C   0  0  0  0  0  0  0  0  0  0  0  0
    0.2032   -5.3466   30.5974 C   0  0  0  0  0  0  0  0  0  0  0  0
    0.3975   -4.0231   29.8768 C   0  0  0  0  0  0  0  0  0  0  0  0
    0.5837   -4.0857   28.6889 O   0  0  0  0  0  0  0  0  0  0  0  0
    0.2329   -2.9075   30.7189 N   0  0  0  0  0  0  0  0  0  0  0  0
    1.5996   -2.4552   31.2763 C   0  0  0  0  0  0  0  0  0  0  0  0
    2.7097   -2.0436   30.2798 C   0  0  0  0  0  0  0  0  0  0  0  0
    2.3202   -0.7701   29.5447 C   0  0  0  0  0  0  0  0  0  0  0  0
    0.8668   -0.9411   29.1368 C   0  0  0  0  0  0  0  0  0  0  0  0
    0.1438    0.2410   28.5316 C   0  0  0  0  0  0  0  0  0  0  0  0
   -0.9781   -0.0346   27.7281 C   0  0  0  0  0  0  0  0  0  0  0  0
   -1.7532    0.9883   27.1893 C   0  0  0  0  0  0  0  0  0  0  0  0
   -1.4323    2.3201   27.4451 C   0  0  0  0  0  0  0  0  0  0  0  0
   -2.3336    3.4195   26.9604 C   0  0  0  0  0  0  0  0  0  0  0  0
   -1.6067    4.3449   26.1654 O   0  0  0  0  0  0  0  0  0  0  0  0
   -0.2985    2.6037   28.2199 C   0  0  0  0  0  0  0  0  0  0  0  0
    0.4833    1.5755   28.7610 C   0  0  0  0  0  0  0  0  0  0  0  0
    0.1221   -1.4380   30.3988 C   0  0  0  0  0  0  0  0  0  0  0  0
   -0.2913   -5.6347   31.8925 N   0  0  0  0  0  0  0  0  0  0  0  0
   -0.7797   -3.0382   32.2657 H   0  0  0  0  0  0  0  0  0  0  0  0
   -1.3020   -3.2478   33.8669 H   0  0  0  0  0  0  0  0  0  0  0  0
   -0.9223   -8.9524   31.6072 H   0  0  0  0  0  0  0  0  0  0  0  0
    0.0158   -8.5097   29.3683 H   0  0  0  0  0  0  0  0  0  0  0  0
    0.8278   -6.2877   28.7680 H   0  0  0  0  0  0  0  0  0  0  0  0
    1.9927   -3.3701   31.7477 H   0  0  0  0  0  0  0  0  0  0  0  0
    1.5162   -1.7744   32.1402 H   0  0  0  0  0  0  0  0  0  0  0  0
    3.6514   -1.8876   30.8179 H   0  0  0  0  0  0  0  0  0  0  0  0
    2.8861   -2.8498   29.5583 H   0  0  0  0  0  0  0  0  0  0  0  0
    2.4474    0.0819   30.2228 H   0  0  0  0  0  0  0  0  0  0  0  0
    2.9676   -0.5973   28.6782 H   0  0  0  0  0  0  0  0  0  0  0  0
    0.8530   -1.7191   28.3636 H   0  0  0  0  0  0  0  0  0  0  0  0
   -1.2629   -1.0643   27.5080 H   0  0  0  0  0  0  0  0  0  0  0  0
   -2.6117    0.7319   26.5738 H   0  0  0  0  0  0  0  0  0  0  0  0
   -2.7466    3.9470   27.8248 H   0  0  0  0  0  0  0  0  0  0  0  0
   -3.1621    3.0277   26.3610 H   0  0  0  0  0  0  0  0  0  0  0  0
   -2.2317    5.0764   25.9989 H   0  0  0  0  0  0  0  0  0  0  0  0
   -0.0364    3.6420   28.4191 H   0  0  0  0  0  0  0  0  0  0  0  0
    1.3415    1.8485   29.3669 H   0  0  0  0  0  0  0  0  0  0  0  0
   -0.9486   -1.3985   30.1398 H   0  0  0  0  0  0  0  0  0  0  0  0
    0.1444   -0.7481   31.2604 H   0  0  0  0  0  0  0  0  0  0  0  0
  1  2  1  0
  2  3  2  0
  3  4  1  0
  4  5  2  0
  5  6  1  0
  6  7  2  0
  7  8  1  0
  8  9  2  0
  9 10  1  0
 10 11  2  0
 10 12  1  0
 12 13  1  0
 13 14  1  0
 14 15  1  0
 15 16  1  0
 16 17  1  0
 17 18  2  0
 18 19  1  0
 19 20  2  0
 20 21  1  0
 21 22  1  0
 20 23  1  0
 23 24  2  0
 16 25  1  0
  9 26  1  0
 26  2  1  0
 26  5  1  0
 25 12  1  0
 24 17  1  0
  1 27  1  0
  1 28  1  0
  6 29  1  0
  7 30  1  0
  8 31  1  0
 13 32  1  0
 13 33  1  0
 14 34  1  0
 14 35  1  0
 15 36  1  0
 15 37  1  0
 16 38  1  0
 18 39  1  0
 19 40  1  0
 21 41  1  0
 21 42  1  0
 22 43  1  0
 23 44  1  0
 24 45  1  0
 25 46  1  0
 25 47  1  0
M  END
>  <Energy>  (290) 
122.11252272784228

>  <compound_id>  (290) 
886

>  <target_id>  (290) 
1

>  <reference_id>  (290) 
40

>  <inspiration_ids>  (290) 
[141, 40]

>  <energy_score>  (290) 
22.515234635986587

>  <distance_score>  (290) 
2.246396011904188

>  <path>  (290) 
/opt/xchem-fragalysis-2/maxwin/BulkDock/SCRATCH/505735/C886-P40/C886-P40.minimised.mol

>  <scratch_subdir>  (290) 
/opt/xchem-fragalysis-2/maxwin/BulkDock/SCRATCH/505735/C886-P40

>  <fragmenstein_runtime>  (290) 
7.717371463775635

>  <fragmenstein_outcome>  (290) 
too moved

>  <fragmenstein_mode>  (290) 
expansion

>  <fragmenstein_error>  (290) 


$$$$
C4039-P141
     RDKit          3D

 60 63  0  0  0  0  0  0  0  0999 V2000
   -0.4465   -5.5104   35.8669 C   0  0  0  0  0  0  0  0  0  0  0  0
   -0.3318   -6.4112   34.6436 C   0  0  0  0  0  0  0  0  0  0  0  0
   -1.3527   -7.5323   34.7442 C   0  0  0  0  0  0  0  0  0  0  0  0
    0.9254   -7.0871   34.6387 O   0  0  0  0  0  0  0  0  0  0  0  0
    1.9988   -6.4479   34.1531 C   0  0  0  0  0  0  0  0  0  0  0  0
    3.1279   -6.8513   34.4100 O   0  0  0  0  0  0  0  0  0  0  0  0
    1.7321   -5.2604   33.2967 C   0  0  0  0  0  0  0  0  0  0  0  0
    0.4067   -5.4657   32.5731 C   0  0  0  0  0  0  0  0  0  0  0  0
    0.4306   -6.6343   31.6708 N   0  0  0  0  0  0  0  0  0  0  0  0
    0.4204   -6.1173   30.2828 N   0  0  0  0  0  0  0  0  0  0  0  0
    0.6628   -4.6852   30.4217 C   0  0  0  0  0  0  0  0  0  0  0  0
   -0.1934   -3.7182   28.9919 Br  0  0  0  0  0  0  0  0  0  0  0  0
    0.0435   -4.3843   31.6796 N   0  0  0  0  0  0  0  0  0  0  0  0
    0.0847   -2.9955   32.1537 C   0  0  0  0  0  0  0  0  0  0  0  0
    1.3545   -2.1533   31.7936 C   0  0  0  0  0  0  0  0  0  0  0  0
    2.1152   -2.4873   30.9278 O   0  0  0  0  0  0  0  0  0  0  0  0
    1.3429   -0.9888   32.6170 N   0  0  0  0  0  0  0  0  0  0  0  0
    2.2135    0.2480   32.5901 C   0  0  0  0  0  0  0  0  0  0  0  0
    1.8837    1.3739   33.5816 C   0  0  0  0  0  0  0  0  0  0  0  0
    2.2332    0.9338   34.9962 C   0  0  0  0  0  0  0  0  0  0  0  0
    1.6752   -0.4649   35.1339 C   0  0  0  0  0  0  0  0  0  0  0  0
    2.0989   -1.3030   36.3246 C   0  0  0  0  0  0  0  0  0  0  0  0
    1.0999   -1.9637   37.0508 C   0  0  0  0  0  0  0  0  0  0  0  0
    1.4090   -3.1180   37.7620 C   0  0  0  0  0  0  0  0  0  0  0  0
    2.7113   -3.6269   37.7506 C   0  0  0  0  0  0  0  0  0  0  0  0
    2.9613   -5.0198   38.2421 C   0  0  0  0  0  0  0  0  0  0  0  0
    2.3625   -5.9069   37.3045 O   0  0  0  0  0  0  0  0  0  0  0  0
    3.7355   -2.8739   37.1695 C   0  0  0  0  0  0  0  0  0  0  0  0
    3.4357   -1.7001   36.4821 C   0  0  0  0  0  0  0  0  0  0  0  0
    2.1127   -1.2443   33.8748 C   0  0  0  0  0  0  0  0  0  0  0  0
   -0.6513   -5.6566   33.4823 O   0  0  0  0  0  0  0  0  0  0  0  0
    0.2649   -4.6858   35.7915 H   0  0  0  0  0  0  0  0  0  0  0  0
   -1.4382   -5.0574   35.9494 H   0  0  0  0  0  0  0  0  0  0  0  0
   -0.2327   -6.0571   36.7904 H   0  0  0  0  0  0  0  0  0  0  0  0
   -1.3315   -8.1417   33.8348 H   0  0  0  0  0  0  0  0  0  0  0  0
   -1.1397   -8.1834   35.5973 H   0  0  0  0  0  0  0  0  0  0  0  0
   -2.3643   -7.1544   34.8412 H   0  0  0  0  0  0  0  0  0  0  0  0
    2.5632   -5.1403   32.5935 H   0  0  0  0  0  0  0  0  0  0  0  0
    1.7086   -4.3994   33.9667 H   0  0  0  0  0  0  0  0  0  0  0  0
   -0.4473   -7.1238   31.8576 H   0  0  0  0  0  0  0  0  0  0  0  0
   -0.5137   -6.1721   29.8737 H   0  0  0  0  0  0  0  0  0  0  0  0
    1.7431   -4.5435   30.3545 H   0  0  0  0  0  0  0  0  0  0  0  0
   -0.7605   -2.4606   31.7007 H   0  0  0  0  0  0  0  0  0  0  0  0
   -0.1035   -2.9620   33.2330 H   0  0  0  0  0  0  0  0  0  0  0  0
    3.2919    0.0557   32.4532 H   0  0  0  0  0  0  0  0  0  0  0  0
    1.9571    0.6655   31.6033 H   0  0  0  0  0  0  0  0  0  0  0  0
    2.4415    2.2810   33.3246 H   0  0  0  0  0  0  0  0  0  0  0  0
    0.8158    1.6173   33.5190 H   0  0  0  0  0  0  0  0  0  0  0  0
    1.8078    1.6135   35.7420 H   0  0  0  0  0  0  0  0  0  0  0  0
    3.3215    0.9466   35.1297 H   0  0  0  0  0  0  0  0  0  0  0  0
    0.5780   -0.3916   35.1303 H   0  0  0  0  0  0  0  0  0  0  0  0
    0.0559   -1.6701   36.9616 H   0  0  0  0  0  0  0  0  0  0  0  0
    0.6081   -3.6847   38.2335 H   0  0  0  0  0  0  0  0  0  0  0  0
    2.5122   -5.1758   39.2282 H   0  0  0  0  0  0  0  0  0  0  0  0
    4.0327   -5.2364   38.3071 H   0  0  0  0  0  0  0  0  0  0  0  0
    2.7180   -6.7934   37.4902 H   0  0  0  0  0  0  0  0  0  0  0  0
    4.7592   -3.2418   37.1737 H   0  0  0  0  0  0  0  0  0  0  0  0
    4.2374   -1.1924   35.9504 H   0  0  0  0  0  0  0  0  0  0  0  0
    1.8495   -2.2866   34.1040 H   0  0  0  0  0  0  0  0  0  0  0  0
    3.2047   -1.3645   33.7406 H   0  0  0  0  0  0  0  0  0  0  0  0
  1  2  1  0
  2  3  1  0
  2  4  1  0
  4  5  1  0
  5  6  2  0
  5  7  1  0
  7  8  1  0
  8  9  1  0
  9 10  1  0
 10 11  1  0
 11 12  1  0
 11 13  1  0
 13 14  1  0
 14 15  1  0
 15 16  2  0
 15 17  1  0
 17 18  1  0
 18 19  1  0
 19 20  1  0
 20 21  1  0
 21 22  1  0
 22 23  2  0
 23 24  1  0
 24 25  2  0
 25 26  1  0
 26 27  1  0
 25 28  1  0
 28 29  2  0
 21 30  1  0
  8 31  1  0
 31  2  1  0
 13  8  1  0
 30 17  1  0
 29 22  1  0
  1 32  1  0
  1 33  1  0
  1 34  1  0
  3 35  1  0
  3 36  1  0
  3 37  1  0
  7 38  1  0
  7 39  1  0
  9 40  1  0
 10 41  1  0
 11 42  1  0
 14 43  1  0
 14 44  1  0
 18 45  1  0
 18 46  1  0
 19 47  1  0
 19 48  1  0
 20 49  1  0
 20 50  1  0
 21 51  1  0
 23 52  1  0
 24 53  1  0
 26 54  1  0
 26 55  1  0
 27 56  1  0
 28 57  1  0
 29 58  1  0
 30 59  1  0
 30 60  1  0
M  END
>  <Energy>  (291) 
36.625691449883263

>  <compound_id>  (291) 
4039

>  <target_id>  (291) 
1

>  <reference_id>  (291) 
141

>  <inspiration_ids>  (291) 
[141, 41]

>  <energy_score>  (291) 
12.365243126511729

>  <distance_score>  (291) 
3.55775640828395

>  <path>  (291) 
/opt/xchem-fragalysis-2/maxwin/BulkDock/SCRATCH/505735/C4039-P141/C4039-P141.minimised.mol

>  <scratch_subdir>  (291) 
/opt/xchem-fragalysis-2/maxwin/BulkDock/SCRATCH/505735/C4039-P141

>  <fragmenstein_runtime>  (291) 
10.827570676803589

>  <fragmenstein_outcome>  (291) 
too moved

>  <fragmenstein_mode>  (291) 
expansion

>  <fragmenstein_error>  (291) 


$$$$
C4039-P41
     RDKit          3D

 60 63  0  0  0  0  0  0  0  0999 V2000
   -0.9375   -4.7274   36.0881 C   0  0  0  0  0  0  0  0  0  0  0  0
   -0.3352   -5.7922   35.1762 C   0  0  0  0  0  0  0  0  0  0  0  0
   -0.7035   -7.1769   35.7153 C   0  0  0  0  0  0  0  0  0  0  0  0
    1.0701   -5.5849   35.2782 O   0  0  0  0  0  0  0  0  0  0  0  0
    1.8581   -6.1558   34.3657 C   0  0  0  0  0  0  0  0  0  0  0  0
    3.0655   -6.2776   34.5486 O   0  0  0  0  0  0  0  0  0  0  0  0
    1.1867   -6.6593   33.1521 C   0  0  0  0  0  0  0  0  0  0  0  0
   -0.0242   -5.8218   32.7897 C   0  0  0  0  0  0  0  0  0  0  0  0
   -0.7417   -6.6249   31.7824 N   0  0  0  0  0  0  0  0  0  0  0  0
   -0.0791   -6.2882   30.5043 N   0  0  0  0  0  0  0  0  0  0  0  0
    0.5506   -4.9836   30.7126 C   0  0  0  0  0  0  0  0  0  0  0  0
   -0.1258   -3.7605   29.3750 Br  0  0  0  0  0  0  0  0  0  0  0  0
    0.1685   -4.5849   32.0505 N   0  0  0  0  0  0  0  0  0  0  0  0
    1.1487   -3.6961   32.6758 C   0  0  0  0  0  0  0  0  0  0  0  0
    1.3072   -2.3428   31.9773 C   0  0  0  0  0  0  0  0  0  0  0  0
    2.4059   -2.0416   31.5805 O   0  0  0  0  0  0  0  0  0  0  0  0
    0.0864   -1.5940   31.9963 N   0  0  0  0  0  0  0  0  0  0  0  0
   -0.2421   -0.2465   31.4311 C   0  0  0  0  0  0  0  0  0  0  0  0
    0.7791    0.9086   31.5608 C   0  0  0  0  0  0  0  0  0  0  0  0
    1.7975    0.7327   32.6825 C   0  0  0  0  0  0  0  0  0  0  0  0
    1.1714   -0.0287   33.8499 C   0  0  0  0  0  0  0  0  0  0  0  0
    2.0524   -0.9133   34.7343 C   0  0  0  0  0  0  0  0  0  0  0  0
    1.4974   -1.4352   35.9179 C   0  0  0  0  0  0  0  0  0  0  0  0
    2.1633   -2.4115   36.6600 C   0  0  0  0  0  0  0  0  0  0  0  0
    3.4188   -2.8725   36.2608 C   0  0  0  0  0  0  0  0  0  0  0  0
    4.1118   -3.9444   37.0479 C   0  0  0  0  0  0  0  0  0  0  0  0
    3.2902   -5.0998   37.1220 O   0  0  0  0  0  0  0  0  0  0  0  0
    4.0171   -2.2987   35.1378 C   0  0  0  0  0  0  0  0  0  0  0  0
    3.3454   -1.3239   34.3913 C   0  0  0  0  0  0  0  0  0  0  0  0
   -0.0463   -0.8294   33.3100 C   0  0  0  0  0  0  0  0  0  0  0  0
   -0.8924   -5.6133   33.8785 O   0  0  0  0  0  0  0  0  0  0  0  0
   -0.8135   -3.7293   35.6537 H   0  0  0  0  0  0  0  0  0  0  0  0
   -2.0014   -4.8901   36.2299 H   0  0  0  0  0  0  0  0  0  0  0  0
   -0.4559   -4.7184   37.0724 H   0  0  0  0  0  0  0  0  0  0  0  0
   -1.7596   -7.3945   35.5401 H   0  0  0  0  0  0  0  0  0  0  0  0
   -0.4814   -7.2581   36.7847 H   0  0  0  0  0  0  0  0  0  0  0  0
   -0.1371   -7.9742   35.2283 H   0  0  0  0  0  0  0  0  0  0  0  0
    0.8770   -7.6823   33.3729 H   0  0  0  0  0  0  0  0  0  0  0  0
    1.9218   -6.6723   32.3436 H   0  0  0  0  0  0  0  0  0  0  0  0
   -1.6848   -6.2365   31.8162 H   0  0  0  0  0  0  0  0  0  0  0  0
   -0.7392   -6.1735   29.7306 H   0  0  0  0  0  0  0  0  0  0  0  0
    1.6315   -5.0731   30.5556 H   0  0  0  0  0  0  0  0  0  0  0  0
    2.1469   -4.1512   32.6971 H   0  0  0  0  0  0  0  0  0  0  0  0
    0.8670   -3.4935   33.7114 H   0  0  0  0  0  0  0  0  0  0  0  0
   -1.2898    0.0564   31.5947 H   0  0  0  0  0  0  0  0  0  0  0  0
   -0.2587   -0.4594   30.3505 H   0  0  0  0  0  0  0  0  0  0  0  0
    1.3130    1.0440   30.6119 H   0  0  0  0  0  0  0  0  0  0  0  0
    0.2211    1.8391   31.7223 H   0  0  0  0  0  0  0  0  0  0  0  0
    2.1663    1.7094   33.0190 H   0  0  0  0  0  0  0  0  0  0  0  0
    2.6720    0.2321   32.2645 H   0  0  0  0  0  0  0  0  0  0  0  0
    0.7640    0.7331   34.5318 H   0  0  0  0  0  0  0  0  0  0  0  0
    0.5085   -1.1226   36.2488 H   0  0  0  0  0  0  0  0  0  0  0  0
    1.6899   -2.8307   37.5463 H   0  0  0  0  0  0  0  0  0  0  0  0
    5.0715   -4.2271   36.6023 H   0  0  0  0  0  0  0  0  0  0  0  0
    4.3079   -3.5891   38.0650 H   0  0  0  0  0  0  0  0  0  0  0  0
    3.3267   -5.5054   36.2333 H   0  0  0  0  0  0  0  0  0  0  0  0
    5.0054   -2.6192   34.8145 H   0  0  0  0  0  0  0  0  0  0  0  0
    3.8450   -0.9449   33.5035 H   0  0  0  0  0  0  0  0  0  0  0  0
   -0.9869   -0.2604   33.4395 H   0  0  0  0  0  0  0  0  0  0  0  0
   -0.2551   -1.6431   34.0194 H   0  0  0  0  0  0  0  0  0  0  0  0
  1  2  1  0
  2  3  1  0
  2  4  1  0
  4  5  1  0
  5  6  2  0
  5  7  1  0
  7  8  1  0
  8  9  1  0
  9 10  1  0
 10 11  1  0
 11 12  1  0
 11 13  1  0
 13 14  1  0
 14 15  1  0
 15 16  2  0
 15 17  1  0
 17 18  1  0
 18 19  1  0
 19 20  1  0
 20 21  1  0
 21 22  1  0
 22 23  2  0
 23 24  1  0
 24 25  2  0
 25 26  1  0
 26 27  1  0
 25 28  1  0
 28 29  2  0
 21 30  1  0
  8 31  1  0
 31  2  1  0
 13  8  1  0
 30 17  1  0
 29 22  1  0
  1 32  1  0
  1 33  1  0
  1 34  1  0
  3 35  1  0
  3 36  1  0
  3 37  1  0
  7 38  1  0
  7 39  1  0
  9 40  1  0
 10 41  1  0
 11 42  1  0
 14 43  1  0
 14 44  1  0
 18 45  1  0
 18 46  1  0
 19 47  1  0
 19 48  1  0
 20 49  1  0
 20 50  1  0
 21 51  1  0
 23 52  1  0
 24 53  1  0
 26 54  1  0
 26 55  1  0
 27 56  1  0
 28 57  1  0
 29 58  1  0
 30 59  1  0
 30 60  1  0
M  END
>  <Energy>  (292) 
36.354452560392033

>  <compound_id>  (292) 
4039

>  <target_id>  (292) 
1

>  <reference_id>  (292) 
41

>  <inspiration_ids>  (292) 
[141, 41]

>  <energy_score>  (292) 
12.094004237020044

>  <distance_score>  (292) 
2.89418999693823

>  <path>  (292) 
/opt/xchem-fragalysis-2/maxwin/BulkDock/SCRATCH/505735/C4039-P41/C4039-P41.minimised.mol

>  <scratch_subdir>  (292) 
/opt/xchem-fragalysis-2/maxwin/BulkDock/SCRATCH/505735/C4039-P41

>  <fragmenstein_runtime>  (292) 
7.791172027587891

>  <fragmenstein_outcome>  (292) 
too moved

>  <fragmenstein_mode>  (292) 
expansion

>  <fragmenstein_error>  (292) 


$$$$
C4040-P141
     RDKit          3D

 59 62  0  0  0  0  0  0  0  0999 V2000
    0.4266   -3.0317   30.1977 O   0  0  0  0  0  0  0  0  0  0  0  0
    0.4686   -3.9213   31.0056 C   0  0  0  0  0  0  0  0  0  0  0  0
    1.2532   -5.2024   30.6631 C   0  0  0  0  0  0  0  0  0  0  0  0
    2.4250   -4.7990   29.8322 C   0  0  0  0  0  0  0  0  0  0  0  0
    2.7680   -5.2132   28.5311 C   0  0  0  0  0  0  0  0  0  0  0  0
    3.6856   -4.4230   27.9691 N   0  0  0  0  0  0  0  0  0  0  0  0
    3.8874   -3.4675   28.8971 N   0  0  0  0  0  0  0  0  0  0  0  0
    4.6008   -2.2366   28.5745 C   0  0  0  0  0  0  0  0  0  0  0  0
    3.6649   -1.0355   28.3240 C   0  0  0  0  0  0  0  0  0  0  0  0
    4.4501    0.2706   28.0992 C   0  0  0  0  0  0  0  0  0  0  0  0
    3.6288    1.4890   27.7816 C   0  0  0  0  0  0  0  0  0  0  0  0
    2.2726    1.4796   27.5294 N   0  0  0  0  0  0  0  0  0  0  0  0
    1.8905    2.7567   27.2201 C   0  0  0  0  0  0  0  0  0  0  0  0
    2.8954    3.5918   27.2842 N   0  0  0  0  0  0  0  0  0  0  0  0
    3.9668    2.8268   27.6488 C   0  0  0  0  0  0  0  0  0  0  0  0
    5.8321    3.6808   27.9080 I   0  0  0  0  0  0  0  0  0  0  0  0
    3.3184   -3.7776   30.0990 C   0  0  0  0  0  0  0  0  0  0  0  0
   -0.0288   -3.9849   32.3422 N   0  0  0  0  0  0  0  0  0  0  0  0
    1.0449   -3.5279   33.3248 C   0  0  0  0  0  0  0  0  0  0  0  0
    1.6634   -2.1296   33.2158 C   0  0  0  0  0  0  0  0  0  0  0  0
    0.6541   -1.1488   33.7524 C   0  0  0  0  0  0  0  0  0  0  0  0
   -0.6583   -1.4332   33.0256 C   0  0  0  0  0  0  0  0  0  0  0  0
   -0.8007   -0.7677   31.6546 C   0  0  0  0  0  0  0  0  0  0  0  0
   -1.7075   -1.2554   30.7033 C   0  0  0  0  0  0  0  0  0  0  0  0
   -1.8693   -0.6307   29.4639 C   0  0  0  0  0  0  0  0  0  0  0  0
   -1.2210    0.5666   29.1778 C   0  0  0  0  0  0  0  0  0  0  0  0
   -1.5144    1.3105   27.9134 C   0  0  0  0  0  0  0  0  0  0  0  0
   -0.6050    0.8329   26.9464 O   0  0  0  0  0  0  0  0  0  0  0  0
   -0.2769    1.0402   30.0854 C   0  0  0  0  0  0  0  0  0  0  0  0
   -0.0833    0.3924   31.3087 C   0  0  0  0  0  0  0  0  0  0  0  0
   -0.8719   -2.9938   33.1394 C   0  0  0  0  0  0  0  0  0  0  0  0
    1.5879   -5.7338   31.5583 H   0  0  0  0  0  0  0  0  0  0  0  0
    0.5825   -5.8648   30.1061 H   0  0  0  0  0  0  0  0  0  0  0  0
    2.3581   -6.0172   27.9398 H   0  0  0  0  0  0  0  0  0  0  0  0
    5.2714   -2.0340   29.4176 H   0  0  0  0  0  0  0  0  0  0  0  0
    5.2200   -2.4354   27.6924 H   0  0  0  0  0  0  0  0  0  0  0  0
    2.9838   -0.9104   29.1757 H   0  0  0  0  0  0  0  0  0  0  0  0
    3.0359   -1.2521   27.4528 H   0  0  0  0  0  0  0  0  0  0  0  0
    5.0430    0.4772   28.9990 H   0  0  0  0  0  0  0  0  0  0  0  0
    5.1611    0.1141   27.2790 H   0  0  0  0  0  0  0  0  0  0  0  0
    1.6366    0.6882   27.5464 H   0  0  0  0  0  0  0  0  0  0  0  0
    0.8705    3.0071   26.9597 H   0  0  0  0  0  0  0  0  0  0  0  0
    3.4399   -3.1267   30.9514 H   0  0  0  0  0  0  0  0  0  0  0  0
    0.8277   -3.8272   34.3653 H   0  0  0  0  0  0  0  0  0  0  0  0
    1.8904   -4.1948   33.0974 H   0  0  0  0  0  0  0  0  0  0  0  0
    2.5785   -2.0811   33.8168 H   0  0  0  0  0  0  0  0  0  0  0  0
    1.9370   -1.8845   32.1858 H   0  0  0  0  0  0  0  0  0  0  0  0
    1.0126   -0.1202   33.6922 H   0  0  0  0  0  0  0  0  0  0  0  0
    0.5124   -1.3400   34.8256 H   0  0  0  0  0  0  0  0  0  0  0  0
   -1.4567   -0.9721   33.6259 H   0  0  0  0  0  0  0  0  0  0  0  0
   -2.2730   -2.1651   30.8755 H   0  0  0  0  0  0  0  0  0  0  0  0
   -2.5113   -1.0929   28.7176 H   0  0  0  0  0  0  0  0  0  0  0  0
   -2.5385    1.1565   27.5617 H   0  0  0  0  0  0  0  0  0  0  0  0
   -1.3695    2.3874   28.0456 H   0  0  0  0  0  0  0  0  0  0  0  0
   -0.8914   -0.0887   26.7611 H   0  0  0  0  0  0  0  0  0  0  0  0
    0.2797    1.9511   29.8718 H   0  0  0  0  0  0  0  0  0  0  0  0
    0.6348    0.8477   31.9821 H   0  0  0  0  0  0  0  0  0  0  0  0
   -1.0298   -3.3151   34.1837 H   0  0  0  0  0  0  0  0  0  0  0  0
   -1.8665   -3.1743   32.7104 H   0  0  0  0  0  0  0  0  0  0  0  0
  1  2  2  0
  2  3  1  0
  3  4  1  0
  4  5  1  0
  5  6  2  0
  6  7  1  0
  7  8  1  0
  8  9  1  0
  9 10  1  0
 10 11  1  0
 11 12  1  0
 12 13  1  0
 13 14  2  0
 14 15  1  0
 15 16  1  0
  7 17  1  0
  2 18  1  0
 18 19  1  0
 19 20  1  0
 20 21  1  0
 21 22  1  0
 22 23  1  0
 23 24  2  0
 24 25  1  0
 25 26  2  0
 26 27  1  0
 27 28  1  0
 26 29  1  0
 29 30  2  0
 22 31  1  0
 17  4  2  0
 31 18  1  0
 15 11  2  0
 30 23  1  0
  3 32  1  0
  3 33  1  0
  5 34  1  0
  8 35  1  0
  8 36  1  0
  9 37  1  0
  9 38  1  0
 10 39  1  0
 10 40  1  0
 12 41  1  0
 13 42  1  0
 17 43  1  0
 19 44  1  0
 19 45  1  0
 20 46  1  0
 20 47  1  0
 21 48  1  0
 21 49  1  0
 22 50  1  0
 24 51  1  0
 25 52  1  0
 27 53  1  0
 27 54  1  0
 28 55  1  0
 29 56  1  0
 30 57  1  0
 31 58  1  0
 31 59  1  0
M  END
>  <Energy>  (293) 
133.13551387883899

>  <compound_id>  (293) 
4040

>  <target_id>  (293) 
1

>  <reference_id>  (293) 
141

>  <inspiration_ids>  (293) 
[141, 53]

>  <energy_score>  (293) 
28.27424757186492

>  <distance_score>  (293) 
3.487247884751284

>  <path>  (293) 
/opt/xchem-fragalysis-2/maxwin/BulkDock/SCRATCH/505735/C4040-P141/C4040-P141.minimised.mol

>  <scratch_subdir>  (293) 
/opt/xchem-fragalysis-2/maxwin/BulkDock/SCRATCH/505735/C4040-P141

>  <fragmenstein_runtime>  (293) 
12.098923921585083

>  <fragmenstein_outcome>  (293) 
too moved

>  <fragmenstein_mode>  (293) 
expansion

>  <fragmenstein_error>  (293) 


$$$$
C4040-P53
     RDKit          3D

 59 62  0  0  0  0  0  0  0  0999 V2000
    0.5264   -3.0540   29.6880 O   0  0  0  0  0  0  0  0  0  0  0  0
    0.5131   -3.8195   30.6160 C   0  0  0  0  0  0  0  0  0  0  0  0
    1.2800   -5.1565   30.5046 C   0  0  0  0  0  0  0  0  0  0  0  0
    2.5349   -4.8832   29.7460 C   0  0  0  0  0  0  0  0  0  0  0  0
    2.9776   -5.4415   28.5297 C   0  0  0  0  0  0  0  0  0  0  0  0
    3.9577   -4.7249   27.9703 N   0  0  0  0  0  0  0  0  0  0  0  0
    4.0987   -3.6822   28.8107 N   0  0  0  0  0  0  0  0  0  0  0  0
    4.7902   -2.4624   28.4025 C   0  0  0  0  0  0  0  0  0  0  0  0
    3.8167   -1.3124   28.0737 C   0  0  0  0  0  0  0  0  0  0  0  0
    4.5399    0.0093   27.7506 C   0  0  0  0  0  0  0  0  0  0  0  0
    3.6415    1.1673   27.4170 C   0  0  0  0  0  0  0  0  0  0  0  0
    2.2753    1.0702   27.2458 N   0  0  0  0  0  0  0  0  0  0  0  0
    1.8052    2.3034   26.8883 C   0  0  0  0  0  0  0  0  0  0  0  0
    2.7600    3.1984   26.8699 N   0  0  0  0  0  0  0  0  0  0  0  0
    3.8973    2.5095   27.1880 C   0  0  0  0  0  0  0  0  0  0  0  0
    5.7272    3.4662   27.2660 I   0  0  0  0  0  0  0  0  0  0  0  0
    3.4463   -3.8737   29.9946 C   0  0  0  0  0  0  0  0  0  0  0  0
   -0.0418   -3.6816   31.9253 N   0  0  0  0  0  0  0  0  0  0  0  0
    0.9987   -3.1086   32.8777 C   0  0  0  0  0  0  0  0  0  0  0  0
    1.6721   -1.7711   32.5568 C   0  0  0  0  0  0  0  0  0  0  0  0
    0.6935   -0.6828   32.8974 C   0  0  0  0  0  0  0  0  0  0  0  0
   -0.6304   -1.0459   32.2269 C   0  0  0  0  0  0  0  0  0  0  0  0
   -0.8086   -0.5095   30.8041 C   0  0  0  0  0  0  0  0  0  0  0  0
   -1.6205   -1.1540   29.8619 C   0  0  0  0  0  0  0  0  0  0  0  0
   -1.9585   -0.5494   28.6450 C   0  0  0  0  0  0  0  0  0  0  0  0
   -1.5497    0.7522   28.3592 C   0  0  0  0  0  0  0  0  0  0  0  0
   -2.0930    1.4922   27.1709 C   0  0  0  0  0  0  0  0  0  0  0  0
   -1.4227    1.0555   26.0084 O   0  0  0  0  0  0  0  0  0  0  0  0
   -0.6524    1.3645   29.2303 C   0  0  0  0  0  0  0  0  0  0  0  0
   -0.2940    0.7463   30.4343 C   0  0  0  0  0  0  0  0  0  0  0  0
   -0.8932   -2.5718   32.5341 C   0  0  0  0  0  0  0  0  0  0  0  0
    1.5159   -5.5801   31.4851 H   0  0  0  0  0  0  0  0  0  0  0  0
    0.6378   -5.8678   29.9782 H   0  0  0  0  0  0  0  0  0  0  0  0
    2.6006   -6.3002   27.9928 H   0  0  0  0  0  0  0  0  0  0  0  0
    5.4534   -2.1872   29.2303 H   0  0  0  0  0  0  0  0  0  0  0  0
    5.4116   -2.7069   27.5339 H   0  0  0  0  0  0  0  0  0  0  0  0
    3.1358   -1.1533   28.9202 H   0  0  0  0  0  0  0  0  0  0  0  0
    3.1895   -1.6135   27.2254 H   0  0  0  0  0  0  0  0  0  0  0  0
    5.1610    0.2872   28.6111 H   0  0  0  0  0  0  0  0  0  0  0  0
    5.2180   -0.1555   26.9039 H   0  0  0  0  0  0  0  0  0  0  0  0
    1.7003    0.2395   27.3329 H   0  0  0  0  0  0  0  0  0  0  0  0
    0.7638    2.4801   26.6536 H   0  0  0  0  0  0  0  0  0  0  0  0
    3.5288   -3.1516   30.7913 H   0  0  0  0  0  0  0  0  0  0  0  0
    0.7303   -3.2218   33.9428 H   0  0  0  0  0  0  0  0  0  0  0  0
    1.8252   -3.8317   32.8048 H   0  0  0  0  0  0  0  0  0  0  0  0
    1.9684   -1.6989   31.5071 H   0  0  0  0  0  0  0  0  0  0  0  0
    2.5784   -1.6553   33.1618 H   0  0  0  0  0  0  0  0  0  0  0  0
    0.5445   -0.6720   33.9863 H   0  0  0  0  0  0  0  0  0  0  0  0
    1.0999    0.2984   32.6496 H   0  0  0  0  0  0  0  0  0  0  0  0
   -1.4124   -0.5074   32.7850 H   0  0  0  0  0  0  0  0  0  0  0  0
   -2.0195   -2.1476   30.0412 H   0  0  0  0  0  0  0  0  0  0  0  0
   -2.5925   -1.0957   27.9481 H   0  0  0  0  0  0  0  0  0  0  0  0
   -3.1671    1.3198   27.0535 H   0  0  0  0  0  0  0  0  0  0  0  0
   -1.9474    2.5725   27.2740 H   0  0  0  0  0  0  0  0  0  0  0  0
   -1.5194    0.0803   25.9786 H   0  0  0  0  0  0  0  0  0  0  0  0
   -0.2948    2.3737   29.0288 H   0  0  0  0  0  0  0  0  0  0  0  0
    0.3328    1.3291   31.1021 H   0  0  0  0  0  0  0  0  0  0  0  0
   -1.1057   -2.7451   33.6039 H   0  0  0  0  0  0  0  0  0  0  0  0
   -1.8761   -2.7895   32.0925 H   0  0  0  0  0  0  0  0  0  0  0  0
  1  2  2  0
  2  3  1  0
  3  4  1  0
  4  5  1  0
  5  6  2  0
  6  7  1  0
  7  8  1  0
  8  9  1  0
  9 10  1  0
 10 11  1  0
 11 12  1  0
 12 13  1  0
 13 14  2  0
 14 15  1  0
 15 16  1  0
  7 17  1  0
  2 18  1  0
 18 19  1  0
 19 20  1  0
 20 21  1  0
 21 22  1  0
 22 23  1  0
 23 24  2  0
 24 25  1  0
 25 26  2  0
 26 27  1  0
 27 28  1  0
 26 29  1  0
 29 30  2  0
 22 31  1  0
 17  4  2  0
 31 18  1  0
 15 11  2  0
 30 23  1  0
  3 32  1  0
  3 33  1  0
  5 34  1  0
  8 35  1  0
  8 36  1  0
  9 37  1  0
  9 38  1  0
 10 39  1  0
 10 40  1  0
 12 41  1  0
 13 42  1  0
 17 43  1  0
 19 44  1  0
 19 45  1  0
 20 46  1  0
 20 47  1  0
 21 48  1  0
 21 49  1  0
 22 50  1  0
 24 51  1  0
 25 52  1  0
 27 53  1  0
 27 54  1  0
 28 55  1  0
 29 56  1  0
 30 57  1  0
 31 58  1  0
 31 59  1  0
M  END
>  <Energy>  (294) 
135.22526470872126

>  <compound_id>  (294) 
4040

>  <target_id>  (294) 
1

>  <reference_id>  (294) 
53

>  <inspiration_ids>  (294) 
[141, 53]

>  <energy_score>  (294) 
30.363998401745334

>  <distance_score>  (294) 
3.342856397008382

>  <path>  (294) 
/opt/xchem-fragalysis-2/maxwin/BulkDock/SCRATCH/505735/C4040-P53/C4040-P53.minimised.mol

>  <scratch_subdir>  (294) 
/opt/xchem-fragalysis-2/maxwin/BulkDock/SCRATCH/505735/C4040-P53

>  <fragmenstein_runtime>  (294) 
9.87770414352417

>  <fragmenstein_outcome>  (294) 
too moved

>  <fragmenstein_mode>  (294) 
expansion

>  <fragmenstein_error>  (294) 


$$$$
C3675-P141
     RDKit          3D

 70 73  0  0  0  0  0  0  0  0999 V2000
    0.5933   -3.4530   28.6791 C   0  0  0  0  0  0  0  0  0  0  0  0
    1.2624   -2.1018   28.8404 C   0  0  0  0  0  0  0  0  0  0  0  0
    0.4577   -0.9926   29.5413 C   0  0  0  0  0  0  0  0  0  0  0  0
   -0.4528   -1.4119   30.7218 C   0  0  0  0  0  0  0  0  0  0  0  0
    0.2972   -2.1464   31.7311 N   0  0  0  0  0  0  0  0  0  0  0  0
    1.4732   -1.5816   32.1421 C   0  0  0  0  0  0  0  0  0  0  0  0
    2.4812   -2.2879   32.6491 C   0  0  0  0  0  0  0  0  0  0  0  0
    3.8379   -1.5615   32.7332 C   0  0  0  0  0  0  0  0  0  0  0  0
    4.3002   -0.8073   31.4143 C   0  0  0  0  0  0  0  0  0  0  0  0
    4.5568    0.7501   31.4547 C   0  0  0  0  0  0  0  0  0  0  0  0
    3.3171    1.5571   31.8296 C   0  0  0  0  0  0  0  0  0  0  0  0
    5.2277    1.2671   30.1721 C   0  0  0  0  0  0  0  0  0  0  0  0
    4.3494    1.1650   28.9268 C   0  0  0  0  0  0  0  0  0  0  0  0
    3.4801    1.9142   28.7200 O   0  0  0  0  0  0  0  0  0  0  0  0
    4.8597   -0.0347   28.0917 N   0  0  0  0  0  0  0  0  0  0  0  0
    4.3465   -0.6142   26.8818 C   0  0  0  0  0  0  0  0  0  0  0  0
    2.1867   -3.6911   33.0271 C   0  0  0  0  0  0  0  0  0  0  0  0
    3.0772   -4.5087   33.8653 C   0  0  0  0  0  0  0  0  0  0  0  0
    2.7531   -5.7510   34.2712 C   0  0  0  0  0  0  0  0  0  0  0  0
    1.5599   -6.3598   33.8040 C   0  0  0  0  0  0  0  0  0  0  0  0
    1.0344   -7.5404   34.0204 N   0  0  0  0  0  0  0  0  0  0  0  0
   -0.0296   -7.6859   33.1727 N   0  0  0  0  0  0  0  0  0  0  0  0
   -0.1462   -6.5855   32.4786 C   0  0  0  0  0  0  0  0  0  0  0  0
   -0.9861   -6.4229   31.4432 N   0  0  0  0  0  0  0  0  0  0  0  0
    0.7645   -5.6378   32.9354 N   0  0  0  0  0  0  0  0  0  0  0  0
    1.0047   -4.2826   32.6484 C   0  0  0  0  0  0  0  0  0  0  0  0
   -0.0507   -3.4543   31.9916 C   0  0  0  0  0  0  0  0  0  0  0  0
   -1.1551   -3.9133   31.6970 O   0  0  0  0  0  0  0  0  0  0  0  0
   -0.3138   -0.0695   28.6392 C   0  0  0  0  0  0  0  0  0  0  0  0
   -1.3504   -0.5191   27.8300 C   0  0  0  0  0  0  0  0  0  0  0  0
   -2.0743    0.3922   27.0692 C   0  0  0  0  0  0  0  0  0  0  0  0
   -1.8302    1.7625   27.1545 C   0  0  0  0  0  0  0  0  0  0  0  0
   -2.6742    2.7416   26.4034 C   0  0  0  0  0  0  0  0  0  0  0  0
   -1.8975    3.2906   25.3493 O   0  0  0  0  0  0  0  0  0  0  0  0
   -0.7773    2.2111   27.9480 C   0  0  0  0  0  0  0  0  0  0  0  0
   -0.0190    1.3028   28.6739 C   0  0  0  0  0  0  0  0  0  0  0  0
    1.2114   -4.0794   28.0305 H   0  0  0  0  0  0  0  0  0  0  0  0
    0.5244   -3.9949   29.6197 H   0  0  0  0  0  0  0  0  0  0  0  0
   -0.4086   -3.3783   28.2568 H   0  0  0  0  0  0  0  0  0  0  0  0
    1.5858   -1.7381   27.8609 H   0  0  0  0  0  0  0  0  0  0  0  0
    2.1879   -2.2822   29.3988 H   0  0  0  0  0  0  0  0  0  0  0  0
    1.2504   -0.3481   29.9385 H   0  0  0  0  0  0  0  0  0  0  0  0
   -0.8776   -0.5268   31.2151 H   0  0  0  0  0  0  0  0  0  0  0  0
   -1.3018   -2.0016   30.3569 H   0  0  0  0  0  0  0  0  0  0  0  0
    1.5938   -0.5283   31.9224 H   0  0  0  0  0  0  0  0  0  0  0  0
    3.8245   -0.8680   33.5821 H   0  0  0  0  0  0  0  0  0  0  0  0
    4.6173   -2.3001   32.9536 H   0  0  0  0  0  0  0  0  0  0  0  0
    3.6103   -1.0248   30.5944 H   0  0  0  0  0  0  0  0  0  0  0  0
    5.2515   -1.2722   31.1187 H   0  0  0  0  0  0  0  0  0  0  0  0
    5.2844    0.9097   32.2630 H   0  0  0  0  0  0  0  0  0  0  0  0
    2.9512    1.2758   32.8219 H   0  0  0  0  0  0  0  0  0  0  0  0
    2.5039    1.4115   31.1148 H   0  0  0  0  0  0  0  0  0  0  0  0
    3.5478    2.6274   31.8608 H   0  0  0  0  0  0  0  0  0  0  0  0
    6.1852    0.7564   30.0198 H   0  0  0  0  0  0  0  0  0  0  0  0
    5.4843    2.3281   30.2905 H   0  0  0  0  0  0  0  0  0  0  0  0
    5.5813   -0.5221   28.6062 H   0  0  0  0  0  0  0  0  0  0  0  0
    3.5839    0.0406   26.4557 H   0  0  0  0  0  0  0  0  0  0  0  0
    5.1731   -0.7555   26.1833 H   0  0  0  0  0  0  0  0  0  0  0  0
    3.9120   -1.5851   27.1272 H   0  0  0  0  0  0  0  0  0  0  0  0
    3.9956   -4.0578   34.2295 H   0  0  0  0  0  0  0  0  0  0  0  0
    3.3990   -6.3158   34.9347 H   0  0  0  0  0  0  0  0  0  0  0  0
   -1.7793   -7.0578   31.5046 H   0  0  0  0  0  0  0  0  0  0  0  0
   -1.3063   -5.4599   31.3120 H   0  0  0  0  0  0  0  0  0  0  0  0
   -1.6075   -1.5715   27.7552 H   0  0  0  0  0  0  0  0  0  0  0  0
   -2.8297    0.0174   26.3903 H   0  0  0  0  0  0  0  0  0  0  0  0
   -3.5688    2.2712   25.9840 H   0  0  0  0  0  0  0  0  0  0  0  0
   -2.9929    3.5486   27.0701 H   0  0  0  0  0  0  0  0  0  0  0  0
   -2.4619    3.9740   24.9464 H   0  0  0  0  0  0  0  0  0  0  0  0
   -0.5462    3.2729   28.0002 H   0  0  0  0  0  0  0  0  0  0  0  0
    0.8006    1.6890   29.2758 H   0  0  0  0  0  0  0  0  0  0  0  0
  1  2  1  0
  2  3  1  0
  3  4  1  0
  4  5  1  0
  5  6  1  0
  6  7  2  0
  7  8  1  0
  8  9  1  0
  9 10  1  0
 10 11  1  0
 10 12  1  0
 12 13  1  0
 13 14  2  0
 13 15  1  0
 15 16  1  0
  7 17  1  0
 17 18  1  0
 18 19  2  0
 19 20  1  0
 20 21  2  0
 21 22  1  0
 22 23  2  0
 23 24  1  0
 23 25  1  0
 25 26  1  0
 26 27  1  0
 27 28  2  0
  3 29  1  0
 29 30  2  0
 30 31  1  0
 31 32  2  0
 32 33  1  0
 33 34  1  0
 32 35  1  0
 35 36  2  0
 27  5  1  0
 36 29  1  0
 26 17  2  0
 25 20  1  0
  1 37  1  0
  1 38  1  0
  1 39  1  0
  2 40  1  0
  2 41  1  0
  3 42  1  0
  4 43  1  0
  4 44  1  0
  6 45  1  0
  8 46  1  0
  8 47  1  0
  9 48  1  0
  9 49  1  0
 10 50  1  0
 11 51  1  0
 11 52  1  0
 11 53  1  0
 12 54  1  0
 12 55  1  0
 15 56  1  0
 16 57  1  0
 16 58  1  0
 16 59  1  0
 18 60  1  0
 19 61  1  0
 24 62  1  0
 24 63  1  0
 30 64  1  0
 31 65  1  0
 33 66  1  0
 33 67  1  0
 34 68  1  0
 35 69  1  0
 36 70  1  0
M  END
>  <Energy>  (295) 
74.586189311272307

>  <compound_id>  (295) 
3675

>  <target_id>  (295) 
1

>  <reference_id>  (295) 
141

>  <inspiration_ids>  (295) 
[141, 57]

>  <energy_score>  (295) 
-63.52458227531275

>  <distance_score>  (295) 
2.9496662203311574

>  <path>  (295) 
/opt/xchem-fragalysis-2/maxwin/BulkDock/SCRATCH/505735/C3675-P141/C3675-P141.minimised.mol

>  <scratch_subdir>  (295) 
/opt/xchem-fragalysis-2/maxwin/BulkDock/SCRATCH/505735/C3675-P141

>  <fragmenstein_runtime>  (295) 
12.344709873199463

>  <fragmenstein_outcome>  (295) 
too moved

>  <fragmenstein_mode>  (295) 
expansion

>  <fragmenstein_error>  (295) 


$$$$
C3675-P57
     RDKit          3D

 70 73  0  0  0  0  0  0  0  0999 V2000
    1.5124    1.5830   32.5174 C   0  0  0  0  0  0  0  0  0  0  0  0
    1.4595    0.4316   31.5121 C   0  0  0  0  0  0  0  0  0  0  0  0
    0.0045    0.0822   31.1048 C   0  0  0  0  0  0  0  0  0  0  0  0
   -0.4426   -1.2775   31.6513 C   0  0  0  0  0  0  0  0  0  0  0  0
    0.2726   -2.4687   31.2432 N   0  0  0  0  0  0  0  0  0  0  0  0
    1.3191   -2.4133   30.3609 C   0  0  0  0  0  0  0  0  0  0  0  0
    1.9312   -3.4848   29.8594 C   0  0  0  0  0  0  0  0  0  0  0  0
    3.0529   -3.2667   28.8182 C   0  0  0  0  0  0  0  0  0  0  0  0
    3.1099   -1.9096   27.9934 C   0  0  0  0  0  0  0  0  0  0  0  0
    4.0326   -0.6728   28.3842 C   0  0  0  0  0  0  0  0  0  0  0  0
    4.5652   -0.7420   29.8129 C   0  0  0  0  0  0  0  0  0  0  0  0
    3.3462    0.6677   28.0797 C   0  0  0  0  0  0  0  0  0  0  0  0
    3.3165    1.0511   26.5931 C   0  0  0  0  0  0  0  0  0  0  0  0
    3.8099    0.4278   25.7378 O   0  0  0  0  0  0  0  0  0  0  0  0
    2.5741    2.4153   26.5448 N   0  0  0  0  0  0  0  0  0  0  0  0
    2.2083    3.2367   25.4282 C   0  0  0  0  0  0  0  0  0  0  0  0
    1.3947   -4.8060   30.2853 C   0  0  0  0  0  0  0  0  0  0  0  0
    1.7865   -6.0839   29.6873 C   0  0  0  0  0  0  0  0  0  0  0  0
    1.1191   -7.2320   29.9392 C   0  0  0  0  0  0  0  0  0  0  0  0
    0.0982   -7.2850   30.9022 C   0  0  0  0  0  0  0  0  0  0  0  0
   -0.7338   -8.2290   31.2720 N   0  0  0  0  0  0  0  0  0  0  0  0
   -1.3385   -7.7932   32.4121 N   0  0  0  0  0  0  0  0  0  0  0  0
   -0.8927   -6.5847   32.6736 C   0  0  0  0  0  0  0  0  0  0  0  0
   -1.0631   -5.8884   33.8199 N   0  0  0  0  0  0  0  0  0  0  0  0
   -0.1166   -6.1383   31.6191 N   0  0  0  0  0  0  0  0  0  0  0  0
    0.4154   -4.8957   31.2396 C   0  0  0  0  0  0  0  0  0  0  0  0
   -0.2570   -3.6605   31.6968 C   0  0  0  0  0  0  0  0  0  0  0  0
   -1.2922   -3.7175   32.3608 O   0  0  0  0  0  0  0  0  0  0  0  0
   -0.3719    0.4307   29.6701 C   0  0  0  0  0  0  0  0  0  0  0  0
   -1.0702   -0.4270   28.8088 C   0  0  0  0  0  0  0  0  0  0  0  0
   -1.6543    0.0686   27.6387 C   0  0  0  0  0  0  0  0  0  0  0  0
   -1.5692    1.4288   27.3204 C   0  0  0  0  0  0  0  0  0  0  0  0
   -2.4343    2.0284   26.2503 C   0  0  0  0  0  0  0  0  0  0  0  0
   -1.7273    3.0408   25.5427 O   0  0  0  0  0  0  0  0  0  0  0  0
   -0.7776    2.2561   28.1138 C   0  0  0  0  0  0  0  0  0  0  0  0
   -0.1729    1.7589   29.2611 C   0  0  0  0  0  0  0  0  0  0  0  0
    0.9754    1.3225   33.4354 H   0  0  0  0  0  0  0  0  0  0  0  0
    2.5515    1.8005   32.7845 H   0  0  0  0  0  0  0  0  0  0  0  0
    1.0713    2.4964   32.1085 H   0  0  0  0  0  0  0  0  0  0  0  0
    1.9538   -0.4128   32.0039 H   0  0  0  0  0  0  0  0  0  0  0  0
    2.0634    0.7184   30.6495 H   0  0  0  0  0  0  0  0  0  0  0  0
   -0.6424    0.7715   31.6728 H   0  0  0  0  0  0  0  0  0  0  0  0
   -0.3754   -1.2449   32.7487 H   0  0  0  0  0  0  0  0  0  0  0  0
   -1.5092   -1.4255   31.4304 H   0  0  0  0  0  0  0  0  0  0  0  0
    1.6218   -1.4414   30.0117 H   0  0  0  0  0  0  0  0  0  0  0  0
    2.9159   -4.0430   28.0536 H   0  0  0  0  0  0  0  0  0  0  0  0
    4.0238   -3.4665   29.2835 H   0  0  0  0  0  0  0  0  0  0  0  0
    2.0832   -1.5631   27.8215 H   0  0  0  0  0  0  0  0  0  0  0  0
    3.4641   -2.2020   26.9946 H   0  0  0  0  0  0  0  0  0  0  0  0
    4.9218   -0.7445   27.7417 H   0  0  0  0  0  0  0  0  0  0  0  0
    5.2090   -1.6177   29.9442 H   0  0  0  0  0  0  0  0  0  0  0  0
    3.7693   -0.8016   30.5528 H   0  0  0  0  0  0  0  0  0  0  0  0
    5.1743    0.1384   30.0443 H   0  0  0  0  0  0  0  0  0  0  0  0
    3.8760    1.4744   28.6016 H   0  0  0  0  0  0  0  0  0  0  0  0
    2.3169    0.6456   28.4416 H   0  0  0  0  0  0  0  0  0  0  0  0
    2.3431    2.7092   27.4874 H   0  0  0  0  0  0  0  0  0  0  0  0
    2.6195    2.8115   24.5101 H   0  0  0  0  0  0  0  0  0  0  0  0
    2.6059    4.2408   25.5898 H   0  0  0  0  0  0  0  0  0  0  0  0
    1.1192    3.2769   25.3682 H   0  0  0  0  0  0  0  0  0  0  0  0
    2.5793   -6.0791   28.9462 H   0  0  0  0  0  0  0  0  0  0  0  0
    1.3467   -8.1655   29.4289 H   0  0  0  0  0  0  0  0  0  0  0  0
   -1.3632   -4.9116   33.6973 H   0  0  0  0  0  0  0  0  0  0  0  0
   -1.7128   -6.3359   34.4608 H   0  0  0  0  0  0  0  0  0  0  0  0
   -1.2422   -1.4736   29.0473 H   0  0  0  0  0  0  0  0  0  0  0  0
   -2.2287   -0.6108   27.0094 H   0  0  0  0  0  0  0  0  0  0  0  0
   -2.7461    1.2685   25.5365 H   0  0  0  0  0  0  0  0  0  0  0  0
   -3.3264    2.4689   26.7090 H   0  0  0  0  0  0  0  0  0  0  0  0
   -2.4102    3.5464   25.0653 H   0  0  0  0  0  0  0  0  0  0  0  0
   -0.7023    3.3174   27.8835 H   0  0  0  0  0  0  0  0  0  0  0  0
    0.3553    2.4676   29.8940 H   0  0  0  0  0  0  0  0  0  0  0  0
  1  2  1  0
  2  3  1  0
  3  4  1  0
  4  5  1  0
  5  6  1  0
  6  7  2  0
  7  8  1  0
  8  9  1  0
  9 10  1  0
 10 11  1  0
 10 12  1  0
 12 13  1  0
 13 14  2  0
 13 15  1  0
 15 16  1  0
  7 17  1  0
 17 18  1  0
 18 19  2  0
 19 20  1  0
 20 21  2  0
 21 22  1  0
 22 23  2  0
 23 24  1  0
 23 25  1  0
 25 26  1  0
 26 27  1  0
 27 28  2  0
  3 29  1  0
 29 30  2  0
 30 31  1  0
 31 32  2  0
 32 33  1  0
 33 34  1  0
 32 35  1  0
 35 36  2  0
 27  5  1  0
 36 29  1  0
 26 17  2  0
 25 20  1  0
  1 37  1  0
  1 38  1  0
  1 39  1  0
  2 40  1  0
  2 41  1  0
  3 42  1  0
  4 43  1  0
  4 44  1  0
  6 45  1  0
  8 46  1  0
  8 47  1  0
  9 48  1  0
  9 49  1  0
 10 50  1  0
 11 51  1  0
 11 52  1  0
 11 53  1  0
 12 54  1  0
 12 55  1  0
 15 56  1  0
 16 57  1  0
 16 58  1  0
 16 59  1  0
 18 60  1  0
 19 61  1  0
 24 62  1  0
 24 63  1  0
 30 64  1  0
 31 65  1  0
 33 66  1  0
 33 67  1  0
 34 68  1  0
 35 69  1  0
 36 70  1  0
M  END
>  <Energy>  (296) 
82.452474457300838

>  <compound_id>  (296) 
3675

>  <target_id>  (296) 
1

>  <reference_id>  (296) 
57

>  <inspiration_ids>  (296) 
[141, 57]

>  <energy_score>  (296) 
-55.658297129283426

>  <distance_score>  (296) 
2.379391689842318

>  <path>  (296) 
/opt/xchem-fragalysis-2/maxwin/BulkDock/SCRATCH/505735/C3675-P57/C3675-P57.minimised.mol

>  <scratch_subdir>  (296) 
/opt/xchem-fragalysis-2/maxwin/BulkDock/SCRATCH/505735/C3675-P57

>  <fragmenstein_runtime>  (296) 
14.386918544769287

>  <fragmenstein_outcome>  (296) 
too moved

>  <fragmenstein_mode>  (296) 
expansion

>  <fragmenstein_error>  (296) 


$$$$
C4043-P141
     RDKit          3D

 51 54  0  0  0  0  0  0  0  0999 V2000
    0.2038   -4.6274   34.1559 C   0  0  0  0  0  0  0  0  0  0  0  0
    0.4143   -4.9012   32.6535 C   0  0  0  0  0  0  0  0  0  0  0  0
    0.4243   -3.5239   31.8203 C   0  0  0  0  0  0  0  0  0  0  0  0
   -0.9485   -2.8321   31.9379 C   0  0  0  0  0  0  0  0  0  0  0  0
   -1.9914   -3.4933   31.9203 O   0  0  0  0  0  0  0  0  0  0  0  0
   -0.9405   -1.4333   32.1382 N   0  0  0  0  0  0  0  0  0  0  0  0
   -2.2464   -0.8379   32.3697 C   0  0  0  0  0  0  0  0  0  0  0  0
    0.0681   -0.5431   31.5060 C   0  0  0  0  0  0  0  0  0  0  0  0
   -0.2409   -0.3917   30.0341 C   0  0  0  0  0  0  0  0  0  0  0  0
   -0.6932    0.8219   29.4659 C   0  0  0  0  0  0  0  0  0  0  0  0
   -1.4170    0.8506   28.2612 C   0  0  0  0  0  0  0  0  0  0  0  0
   -1.9889    2.1154   27.6623 C   0  0  0  0  0  0  0  0  0  0  0  0
   -1.3005    2.4907   26.4750 O   0  0  0  0  0  0  0  0  0  0  0  0
   -1.6836   -0.3740   27.6623 C   0  0  0  0  0  0  0  0  0  0  0  0
   -1.1204   -1.5496   28.1680 C   0  0  0  0  0  0  0  0  0  0  0  0
   -0.2648   -1.5518   29.2656 C   0  0  0  0  0  0  0  0  0  0  0  0
    0.7856   -2.6372   29.3927 C   0  0  0  0  0  0  0  0  0  0  0  0
    2.2123   -2.0442   29.2973 C   0  0  0  0  0  0  0  0  0  0  0  0
    3.0710   -2.9379   30.1630 C   0  0  0  0  0  0  0  0  0  0  0  0
    2.2336   -4.1863   30.3098 C   0  0  0  0  0  0  0  0  0  0  0  0
    0.8326   -3.7166   30.4118 N   0  0  0  0  0  0  0  0  0  0  0  0
   -0.3687   -6.0306   32.1530 N   0  0  0  0  0  0  0  0  0  0  0  0
   -0.3362   -6.5660   30.8967 C   0  0  0  0  0  0  0  0  0  0  0  0
   -1.0026   -7.6979   30.8605 N   0  0  0  0  0  0  0  0  0  0  0  0
   -1.4619   -7.9401   32.1260 N   0  0  0  0  0  0  0  0  0  0  0  0
   -1.0748   -6.9426   32.8884 C   0  0  0  0  0  0  0  0  0  0  0  0
    0.8644   -3.8230   34.4972 H   0  0  0  0  0  0  0  0  0  0  0  0
   -0.8254   -4.3299   34.3726 H   0  0  0  0  0  0  0  0  0  0  0  0
    0.4375   -5.5102   34.7613 H   0  0  0  0  0  0  0  0  0  0  0  0
    1.4350   -5.3013   32.6244 H   0  0  0  0  0  0  0  0  0  0  0  0
    1.1590   -2.8882   32.3282 H   0  0  0  0  0  0  0  0  0  0  0  0
   -2.7721   -0.7227   31.4176 H   0  0  0  0  0  0  0  0  0  0  0  0
   -2.1234    0.1362   32.8511 H   0  0  0  0  0  0  0  0  0  0  0  0
   -2.8462   -1.4749   33.0273 H   0  0  0  0  0  0  0  0  0  0  0  0
    1.0758   -0.9341   31.6533 H   0  0  0  0  0  0  0  0  0  0  0  0
    0.0324    0.4264   32.0163 H   0  0  0  0  0  0  0  0  0  0  0  0
   -0.4878    1.7466   29.9912 H   0  0  0  0  0  0  0  0  0  0  0  0
   -3.0467    1.9668   27.4214 H   0  0  0  0  0  0  0  0  0  0  0  0
   -1.9127    2.9457   28.3701 H   0  0  0  0  0  0  0  0  0  0  0  0
   -1.8047    3.2404   26.1118 H   0  0  0  0  0  0  0  0  0  0  0  0
   -2.2813   -0.4312   26.7543 H   0  0  0  0  0  0  0  0  0  0  0  0
   -1.3103   -2.4772   27.6461 H   0  0  0  0  0  0  0  0  0  0  0  0
    0.6771   -3.2180   28.4634 H   0  0  0  0  0  0  0  0  0  0  0  0
    2.3085   -1.0063   29.6304 H   0  0  0  0  0  0  0  0  0  0  0  0
    2.5583   -2.0779   28.2565 H   0  0  0  0  0  0  0  0  0  0  0  0
    4.0451   -3.1400   29.7078 H   0  0  0  0  0  0  0  0  0  0  0  0
    3.2429   -2.4690   31.1388 H   0  0  0  0  0  0  0  0  0  0  0  0
    2.3261   -4.8027   29.4052 H   0  0  0  0  0  0  0  0  0  0  0  0
    2.5986   -4.8062   31.1288 H   0  0  0  0  0  0  0  0  0  0  0  0
    0.1630   -6.1153   30.0547 H   0  0  0  0  0  0  0  0  0  0  0  0
   -1.2811   -6.8544   33.9451 H   0  0  0  0  0  0  0  0  0  0  0  0
  1  2  1  0
  2  3  1  0
  3  4  1  0
  4  5  2  0
  4  6  1  0
  6  7  1  0
  6  8  1  0
  8  9  1  0
  9 10  2  0
 10 11  1  0
 11 12  1  0
 12 13  1  0
 11 14  2  0
 14 15  1  0
 15 16  2  0
 16 17  1  0
 17 18  1  0
 18 19  1  0
 19 20  1  0
 20 21  1  0
  2 22  1  0
 22 23  1  0
 23 24  2  0
 24 25  1  0
 25 26  2  0
 21  3  1  0
 26 22  1  0
 16  9  1  0
 21 17  1  0
  1 27  1  0
  1 28  1  0
  1 29  1  0
  2 30  1  0
  3 31  1  0
  7 32  1  0
  7 33  1  0
  7 34  1  0
  8 35  1  0
  8 36  1  0
 10 37  1  0
 12 38  1  0
 12 39  1  0
 13 40  1  0
 14 41  1  0
 15 42  1  0
 17 43  1  0
 18 44  1  0
 18 45  1  0
 19 46  1  0
 19 47  1  0
 20 48  1  0
 20 49  1  0
 23 50  1  0
 26 51  1  0
M  END
>  <Energy>  (297) 
97.904058764964532

>  <compound_id>  (297) 
4043

>  <target_id>  (297) 
1

>  <reference_id>  (297) 
141

>  <inspiration_ids>  (297) 
[141, 72]

>  <energy_score>  (297) 
-67.35222750361015

>  <distance_score>  (297) 
1.1696118672234914

>  <path>  (297) 
/opt/xchem-fragalysis-2/maxwin/BulkDock/SCRATCH/505735/C4043-P141/C4043-P141.minimised.mol

>  <scratch_subdir>  (297) 
/opt/xchem-fragalysis-2/maxwin/BulkDock/SCRATCH/505735/C4043-P141

>  <fragmenstein_runtime>  (297) 
4.057804584503174

>  <fragmenstein_outcome>  (297) 
too moved

>  <fragmenstein_mode>  (297) 
expansion

>  <fragmenstein_error>  (297) 


$$$$
C4043-P72
     RDKit          3D

 51 54  0  0  0  0  0  0  0  0999 V2000
    0.1615   -4.6713   34.1333 C   0  0  0  0  0  0  0  0  0  0  0  0
    0.3930   -4.9730   32.6386 C   0  0  0  0  0  0  0  0  0  0  0  0
    0.4343   -3.6046   31.7870 C   0  0  0  0  0  0  0  0  0  0  0  0
   -0.9260   -2.8900   31.8963 C   0  0  0  0  0  0  0  0  0  0  0  0
   -1.9780   -3.5369   31.8928 O   0  0  0  0  0  0  0  0  0  0  0  0
   -0.8978   -1.4906   32.0785 N   0  0  0  0  0  0  0  0  0  0  0  0
   -2.1944   -0.8746   32.3004 C   0  0  0  0  0  0  0  0  0  0  0  0
    0.1333   -0.6195   31.4573 C   0  0  0  0  0  0  0  0  0  0  0  0
   -0.1490   -0.4644   29.9806 C   0  0  0  0  0  0  0  0  0  0  0  0
   -0.5543    0.7599   29.4001 C   0  0  0  0  0  0  0  0  0  0  0  0
   -1.2536    0.8096   28.1791 C   0  0  0  0  0  0  0  0  0  0  0  0
   -1.7998    2.0870   27.5783 C   0  0  0  0  0  0  0  0  0  0  0  0
   -1.2114    2.3764   26.3160 O   0  0  0  0  0  0  0  0  0  0  0  0
   -1.5300   -0.4066   27.5689 C   0  0  0  0  0  0  0  0  0  0  0  0
   -0.9942   -1.5931   28.0790 C   0  0  0  0  0  0  0  0  0  0  0  0
   -0.1783   -1.6205   29.2079 C   0  0  0  0  0  0  0  0  0  0  0  0
    0.8428   -2.7306   29.3611 C   0  0  0  0  0  0  0  0  0  0  0  0
    2.2851   -2.1729   29.3002 C   0  0  0  0  0  0  0  0  0  0  0  0
    3.1070   -3.1108   30.1561 C   0  0  0  0  0  0  0  0  0  0  0  0
    2.2243   -4.3311   30.2836 C   0  0  0  0  0  0  0  0  0  0  0  0
    0.8412   -3.8108   30.3806 N   0  0  0  0  0  0  0  0  0  0  0  0
   -0.4002   -6.1019   32.1505 N   0  0  0  0  0  0  0  0  0  0  0  0
   -0.4565   -6.5916   30.8770 C   0  0  0  0  0  0  0  0  0  0  0  0
   -1.1082   -7.7326   30.8490 N   0  0  0  0  0  0  0  0  0  0  0  0
   -1.4683   -8.0282   32.1343 N   0  0  0  0  0  0  0  0  0  0  0  0
   -1.0400   -7.0512   32.9023 C   0  0  0  0  0  0  0  0  0  0  0  0
    0.7994   -3.8448   34.4650 H   0  0  0  0  0  0  0  0  0  0  0  0
   -0.8778   -4.3967   34.3333 H   0  0  0  0  0  0  0  0  0  0  0  0
    0.4103   -5.5349   34.7598 H   0  0  0  0  0  0  0  0  0  0  0  0
    1.4091   -5.3857   32.6288 H   0  0  0  0  0  0  0  0  0  0  0  0
    1.1790   -2.9788   32.2924 H   0  0  0  0  0  0  0  0  0  0  0  0
   -2.8139   -1.5025   32.9484 H   0  0  0  0  0  0  0  0  0  0  0  0
   -2.7069   -0.7453   31.3430 H   0  0  0  0  0  0  0  0  0  0  0  0
   -2.0579    0.0933   32.7897 H   0  0  0  0  0  0  0  0  0  0  0  0
    1.1323   -1.0258   31.6218 H   0  0  0  0  0  0  0  0  0  0  0  0
    0.1058    0.3516   31.9651 H   0  0  0  0  0  0  0  0  0  0  0  0
   -0.3300    1.6776   29.9327 H   0  0  0  0  0  0  0  0  0  0  0  0
   -2.8810    1.9955   27.4419 H   0  0  0  0  0  0  0  0  0  0  0  0
   -1.6037    2.9404   28.2328 H   0  0  0  0  0  0  0  0  0  0  0  0
   -1.7093    3.1356   25.9649 H   0  0  0  0  0  0  0  0  0  0  0  0
   -2.1051   -0.4459   26.6461 H   0  0  0  0  0  0  0  0  0  0  0  0
   -1.1730   -2.5128   27.5399 H   0  0  0  0  0  0  0  0  0  0  0  0
    0.7427   -3.3080   28.4277 H   0  0  0  0  0  0  0  0  0  0  0  0
    2.4028   -1.1469   29.6615 H   0  0  0  0  0  0  0  0  0  0  0  0
    2.6449   -2.1889   28.2635 H   0  0  0  0  0  0  0  0  0  0  0  0
    4.0744   -3.3425   29.7007 H   0  0  0  0  0  0  0  0  0  0  0  0
    3.2931   -2.6622   31.1387 H   0  0  0  0  0  0  0  0  0  0  0  0
    2.3010   -4.9403   29.3727 H   0  0  0  0  0  0  0  0  0  0  0  0
    2.5602   -4.9755   31.0962 H   0  0  0  0  0  0  0  0  0  0  0  0
   -0.0327   -6.1023   30.0155 H   0  0  0  0  0  0  0  0  0  0  0  0
   -1.1733   -7.0054   33.9742 H   0  0  0  0  0  0  0  0  0  0  0  0
  1  2  1  0
  2  3  1  0
  3  4  1  0
  4  5  2  0
  4  6  1  0
  6  7  1  0
  6  8  1  0
  8  9  1  0
  9 10  2  0
 10 11  1  0
 11 12  1  0
 12 13  1  0
 11 14  2  0
 14 15  1  0
 15 16  2  0
 16 17  1  0
 17 18  1  0
 18 19  1  0
 19 20  1  0
 20 21  1  0
  2 22  1  0
 22 23  1  0
 23 24  2  0
 24 25  1  0
 25 26  2  0
 21  3  1  0
 26 22  1  0
 16  9  1  0
 21 17  1  0
  1 27  1  0
  1 28  1  0
  1 29  1  0
  2 30  1  0
  3 31  1  0
  7 32  1  0
  7 33  1  0
  7 34  1  0
  8 35  1  0
  8 36  1  0
 10 37  1  0
 12 38  1  0
 12 39  1  0
 13 40  1  0
 14 41  1  0
 15 42  1  0
 17 43  1  0
 18 44  1  0
 18 45  1  0
 19 46  1  0
 19 47  1  0
 20 48  1  0
 20 49  1  0
 23 50  1  0
 26 51  1  0
M  END
>  <Energy>  (298) 
97.64657512382712

>  <compound_id>  (298) 
4043

>  <target_id>  (298) 
1

>  <reference_id>  (298) 
72

>  <inspiration_ids>  (298) 
[141, 72]

>  <energy_score>  (298) 
-67.60971114474535

>  <distance_score>  (298) 
1.1786608485103034

>  <path>  (298) 
/opt/xchem-fragalysis-2/maxwin/BulkDock/SCRATCH/505735/C4043-P72/C4043-P72.minimised.mol

>  <scratch_subdir>  (298) 
/opt/xchem-fragalysis-2/maxwin/BulkDock/SCRATCH/505735/C4043-P72

>  <fragmenstein_runtime>  (298) 
3.9270741939544678

>  <fragmenstein_outcome>  (298) 
too moved

>  <fragmenstein_mode>  (298) 
expansion

>  <fragmenstein_error>  (298) 


$$$$
C3817-P141
     RDKit          3D

 68 71  0  0  0  0  0  0  0  0999 V2000
    2.4742   -1.4926   28.4846 C   0  0  0  0  0  0  0  0  0  0  0  0
    1.3638   -2.0955   29.3397 C   0  0  0  0  0  0  0  0  0  0  0  0
    0.5178   -1.0296   30.0668 C   0  0  0  0  0  0  0  0  0  0  0  0
   -0.5282   -1.5764   31.0800 C   0  0  0  0  0  0  0  0  0  0  0  0
   -0.0584   -2.6870   31.8915 N   0  0  0  0  0  0  0  0  0  0  0  0
    1.0446   -2.5424   32.7156 C   0  0  0  0  0  0  0  0  0  0  0  0
    1.5687   -3.6794   33.1822 C   0  0  0  0  0  0  0  0  0  0  0  0
    2.1308   -3.8291   34.5784 C   0  0  0  0  0  0  0  0  0  0  0  0
    0.9780   -4.2223   35.5813 C   0  0  0  0  0  0  0  0  0  0  0  0
    0.4410   -3.0121   36.1395 O   0  0  0  0  0  0  0  0  0  0  0  0
   -0.9665   -2.8895   35.9626 C   0  0  0  0  0  0  0  0  0  0  0  0
    1.4847   -5.1467   36.7117 C   0  0  0  0  0  0  0  0  0  0  0  0
    0.3753   -5.6400   37.6449 C   0  0  0  0  0  0  0  0  0  0  0  0
    2.2706   -6.2372   36.2157 O   0  0  0  0  0  0  0  0  0  0  0  0
    1.6075   -7.1748   35.3943 C   0  0  0  0  0  0  0  0  0  0  0  0
    1.1622   -4.8795   32.4629 C   0  0  0  0  0  0  0  0  0  0  0  0
    1.7862   -5.3439   31.2022 C   0  0  0  0  0  0  0  0  0  0  0  0
    1.1511   -6.2032   30.3723 C   0  0  0  0  0  0  0  0  0  0  0  0
   -0.0161   -6.8632   30.8387 C   0  0  0  0  0  0  0  0  0  0  0  0
   -0.6302   -7.9794   30.5198 N   0  0  0  0  0  0  0  0  0  0  0  0
   -1.3969   -8.3338   31.6126 N   0  0  0  0  0  0  0  0  0  0  0  0
   -1.2578   -7.4026   32.5344 C   0  0  0  0  0  0  0  0  0  0  0  0
   -1.5822   -7.4779   33.8410 N   0  0  0  0  0  0  0  0  0  0  0  0
   -0.6028   -6.3248   31.9670 N   0  0  0  0  0  0  0  0  0  0  0  0
   -0.1683   -5.1198   32.5163 C   0  0  0  0  0  0  0  0  0  0  0  0
   -0.8429   -3.8575   31.9758 C   0  0  0  0  0  0  0  0  0  0  0  0
   -2.0008   -3.9333   31.5763 O   0  0  0  0  0  0  0  0  0  0  0  0
   -0.2082   -0.1243   29.0890 C   0  0  0  0  0  0  0  0  0  0  0  0
   -1.1361   -0.6397   28.1744 C   0  0  0  0  0  0  0  0  0  0  0  0
   -1.8473    0.2119   27.3323 C   0  0  0  0  0  0  0  0  0  0  0  0
   -1.6725    1.5941   27.4022 C   0  0  0  0  0  0  0  0  0  0  0  0
   -2.5117    2.5185   26.5706 C   0  0  0  0  0  0  0  0  0  0  0  0
   -1.7141    3.0622   25.5288 O   0  0  0  0  0  0  0  0  0  0  0  0
   -0.7047    2.1047   28.2725 C   0  0  0  0  0  0  0  0  0  0  0  0
    0.0219    1.2550   29.1083 C   0  0  0  0  0  0  0  0  0  0  0  0
    2.0777   -0.8615   27.6849 H   0  0  0  0  0  0  0  0  0  0  0  0
    3.0649   -2.2897   28.0217 H   0  0  0  0  0  0  0  0  0  0  0  0
    3.1496   -0.8854   29.0960 H   0  0  0  0  0  0  0  0  0  0  0  0
    1.8530   -2.7424   30.0698 H   0  0  0  0  0  0  0  0  0  0  0  0
    0.7341   -2.7430   28.7190 H   0  0  0  0  0  0  0  0  0  0  0  0
    1.2254   -0.4212   30.6483 H   0  0  0  0  0  0  0  0  0  0  0  0
   -1.4329   -1.8935   30.5490 H   0  0  0  0  0  0  0  0  0  0  0  0
   -0.8473   -0.7743   31.7593 H   0  0  0  0  0  0  0  0  0  0  0  0
    1.2628   -1.5489   33.0938 H   0  0  0  0  0  0  0  0  0  0  0  0
    2.5949   -2.8878   34.8981 H   0  0  0  0  0  0  0  0  0  0  0  0
    2.9248   -4.5827   34.5450 H   0  0  0  0  0  0  0  0  0  0  0  0
    0.1862   -4.7663   35.0577 H   0  0  0  0  0  0  0  0  0  0  0  0
   -1.2136   -2.8314   34.8993 H   0  0  0  0  0  0  0  0  0  0  0  0
   -1.4915   -3.7291   36.4267 H   0  0  0  0  0  0  0  0  0  0  0  0
   -1.2927   -1.9646   36.4454 H   0  0  0  0  0  0  0  0  0  0  0  0
    2.1692   -4.5578   37.3355 H   0  0  0  0  0  0  0  0  0  0  0  0
   -0.0577   -4.8114   38.2135 H   0  0  0  0  0  0  0  0  0  0  0  0
    0.7669   -6.3786   38.3523 H   0  0  0  0  0  0  0  0  0  0  0  0
   -0.4339   -6.1222   37.0867 H   0  0  0  0  0  0  0  0  0  0  0  0
    2.3233   -7.9626   35.1451 H   0  0  0  0  0  0  0  0  0  0  0  0
    1.2739   -6.7280   34.4619 H   0  0  0  0  0  0  0  0  0  0  0  0
    0.7677   -7.6421   35.9138 H   0  0  0  0  0  0  0  0  0  0  0  0
    2.6991   -4.8435   30.8875 H   0  0  0  0  0  0  0  0  0  0  0  0
    1.5612   -6.4524   29.4035 H   0  0  0  0  0  0  0  0  0  0  0  0
   -1.3497   -6.7621   34.5189 H   0  0  0  0  0  0  0  0  0  0  0  0
   -1.7516   -8.4128   34.2226 H   0  0  0  0  0  0  0  0  0  0  0  0
   -1.3267   -1.7089   28.0967 H   0  0  0  0  0  0  0  0  0  0  0  0
   -2.5390   -0.2231   26.6159 H   0  0  0  0  0  0  0  0  0  0  0  0
   -2.8939    3.3370   27.1888 H   0  0  0  0  0  0  0  0  0  0  0  0
   -3.3673    1.9972   26.1296 H   0  0  0  0  0  0  0  0  0  0  0  0
   -2.2799    3.7251   25.0939 H   0  0  0  0  0  0  0  0  0  0  0  0
   -0.5330    3.1790   28.3155 H   0  0  0  0  0  0  0  0  0  0  0  0
    0.7528    1.6901   29.7849 H   0  0  0  0  0  0  0  0  0  0  0  0
  1  2  1  0
  2  3  1  0
  3  4  1  0
  4  5  1  0
  5  6  1  0
  6  7  2  0
  7  8  1  0
  8  9  1  0
  9 10  1  0
 10 11  1  0
  9 12  1  0
 12 13  1  0
 12 14  1  0
 14 15  1  0
  7 16  1  0
 16 17  1  0
 17 18  2  0
 18 19  1  0
 19 20  2  0
 20 21  1  0
 21 22  2  0
 22 23  1  0
 22 24  1  0
 24 25  1  0
 25 26  1  0
 26 27  2  0
  3 28  1  0
 28 29  2  0
 29 30  1  0
 30 31  2  0
 31 32  1  0
 32 33  1  0
 31 34  1  0
 34 35  2  0
 26  5  1  0
 35 28  1  0
 25 16  2  0
 24 19  1  0
  1 36  1  0
  1 37  1  0
  1 38  1  0
  2 39  1  0
  2 40  1  0
  3 41  1  0
  4 42  1  0
  4 43  1  0
  6 44  1  0
  8 45  1  0
  8 46  1  0
  9 47  1  0
 11 48  1  0
 11 49  1  0
 11 50  1  0
 12 51  1  0
 13 52  1  0
 13 53  1  0
 13 54  1  0
 15 55  1  0
 15 56  1  0
 15 57  1  0
 17 58  1  0
 18 59  1  0
 23 60  1  0
 23 61  1  0
 29 62  1  0
 30 63  1  0
 32 64  1  0
 32 65  1  0
 33 66  1  0
 34 67  1  0
 35 68  1  0
M  END
>  <Energy>  (299) 
182.28505298049214

>  <compound_id>  (299) 
3817

>  <target_id>  (299) 
1

>  <reference_id>  (299) 
141

>  <inspiration_ids>  (299) 
[141, 78]

>  <energy_score>  (299) 
-10.677683496827683

>  <distance_score>  (299) 
1.3610028293978627

>  <path>  (299) 
/opt/xchem-fragalysis-2/maxwin/BulkDock/SCRATCH/505735/C3817-P141/C3817-P141.minimised.mol

>  <scratch_subdir>  (299) 
/opt/xchem-fragalysis-2/maxwin/BulkDock/SCRATCH/505735/C3817-P141

>  <fragmenstein_runtime>  (299) 
9.09286093711853

>  <fragmenstein_outcome>  (299) 
too moved

>  <fragmenstein_mode>  (299) 
expansion

>  <fragmenstein_error>  (299) 


$$$$
C3817-P78
     RDKit          3D

 68 71  0  0  0  0  0  0  0  0999 V2000
    2.4508   -1.6967   28.3685 C   0  0  0  0  0  0  0  0  0  0  0  0
    1.3634   -2.2498   29.2843 C   0  0  0  0  0  0  0  0  0  0  0  0
    0.5524   -1.1476   30.0014 C   0  0  0  0  0  0  0  0  0  0  0  0
   -0.4917   -1.6629   31.0334 C   0  0  0  0  0  0  0  0  0  0  0  0
   -0.0229   -2.7674   31.8573 N   0  0  0  0  0  0  0  0  0  0  0  0
    1.0924   -2.6194   32.6650 C   0  0  0  0  0  0  0  0  0  0  0  0
    1.6018   -3.7511   33.1594 C   0  0  0  0  0  0  0  0  0  0  0  0
    2.1574   -3.8732   34.5618 C   0  0  0  0  0  0  0  0  0  0  0  0
    0.9992   -4.2512   35.5649 C   0  0  0  0  0  0  0  0  0  0  0  0
    0.4576   -3.0347   36.1043 O   0  0  0  0  0  0  0  0  0  0  0  0
   -0.9433   -2.8974   35.8908 C   0  0  0  0  0  0  0  0  0  0  0  0
    1.4966   -5.1571   36.7138 C   0  0  0  0  0  0  0  0  0  0  0  0
    0.3765   -5.6393   37.6402 C   0  0  0  0  0  0  0  0  0  0  0  0
    2.2927   -6.2513   36.2458 O   0  0  0  0  0  0  0  0  0  0  0  0
    1.6485   -7.2184   35.4432 C   0  0  0  0  0  0  0  0  0  0  0  0
    1.1804   -4.9663   32.4778 C   0  0  0  0  0  0  0  0  0  0  0  0
    1.8524   -5.5438   31.2955 C   0  0  0  0  0  0  0  0  0  0  0  0
    1.2276   -6.4336   30.4905 C   0  0  0  0  0  0  0  0  0  0  0  0
    0.0020   -7.0069   30.9184 C   0  0  0  0  0  0  0  0  0  0  0  0
   -0.6667   -8.0934   30.6055 N   0  0  0  0  0  0  0  0  0  0  0  0
   -1.4904   -8.3730   31.6784 N   0  0  0  0  0  0  0  0  0  0  0  0
   -1.3128   -7.4313   32.5826 C   0  0  0  0  0  0  0  0  0  0  0  0
   -1.6218   -7.4856   33.9021 N   0  0  0  0  0  0  0  0  0  0  0  0
   -0.6094   -6.3943   31.9937 N   0  0  0  0  0  0  0  0  0  0  0  0
   -0.1533   -5.1848   32.5103 C   0  0  0  0  0  0  0  0  0  0  0  0
   -0.8301   -3.9171   31.9964 C   0  0  0  0  0  0  0  0  0  0  0  0
   -2.0099   -3.9675   31.6629 O   0  0  0  0  0  0  0  0  0  0  0  0
   -0.1630   -0.2402   29.0169 C   0  0  0  0  0  0  0  0  0  0  0  0
   -1.0740   -0.7545   28.0853 C   0  0  0  0  0  0  0  0  0  0  0  0
   -1.7571    0.0961   27.2183 C   0  0  0  0  0  0  0  0  0  0  0  0
   -1.5668    1.4788   27.2690 C   0  0  0  0  0  0  0  0  0  0  0  0
   -2.4176    2.3876   26.4244 C   0  0  0  0  0  0  0  0  0  0  0  0
   -1.6772    3.5291   26.0112 O   0  0  0  0  0  0  0  0  0  0  0  0
   -0.6373    1.9887   28.1817 C   0  0  0  0  0  0  0  0  0  0  0  0
    0.0632    1.1398   29.0421 C   0  0  0  0  0  0  0  0  0  0  0  0
    2.0328   -1.1048   27.5500 H   0  0  0  0  0  0  0  0  0  0  0  0
    3.0219   -2.5197   27.9267 H   0  0  0  0  0  0  0  0  0  0  0  0
    3.1478   -1.0651   28.9286 H   0  0  0  0  0  0  0  0  0  0  0  0
    1.8660   -2.8826   30.0200 H   0  0  0  0  0  0  0  0  0  0  0  0
    0.7044   -2.9092   28.7074 H   0  0  0  0  0  0  0  0  0  0  0  0
    1.2824   -0.5473   30.5631 H   0  0  0  0  0  0  0  0  0  0  0  0
   -1.4026   -1.9817   30.5133 H   0  0  0  0  0  0  0  0  0  0  0  0
   -0.7967   -0.8470   31.7023 H   0  0  0  0  0  0  0  0  0  0  0  0
    1.3264   -1.6198   33.0171 H   0  0  0  0  0  0  0  0  0  0  0  0
    2.6170   -2.9250   34.8671 H   0  0  0  0  0  0  0  0  0  0  0  0
    2.9531   -4.6256   34.5468 H   0  0  0  0  0  0  0  0  0  0  0  0
    0.2103   -4.8044   35.0471 H   0  0  0  0  0  0  0  0  0  0  0  0
   -1.1643   -2.8436   34.8220 H   0  0  0  0  0  0  0  0  0  0  0  0
   -1.4875   -3.7292   36.3470 H   0  0  0  0  0  0  0  0  0  0  0  0
   -1.2715   -1.9665   36.3604 H   0  0  0  0  0  0  0  0  0  0  0  0
    2.1707   -4.5557   37.3370 H   0  0  0  0  0  0  0  0  0  0  0  0
   -0.0719   -4.8023   38.1842 H   0  0  0  0  0  0  0  0  0  0  0  0
    0.7630   -6.3592   38.3692 H   0  0  0  0  0  0  0  0  0  0  0  0
   -0.4199   -6.1400   37.0799 H   0  0  0  0  0  0  0  0  0  0  0  0
    2.3814   -7.9934   35.2030 H   0  0  0  0  0  0  0  0  0  0  0  0
    1.2964   -6.7945   34.5065 H   0  0  0  0  0  0  0  0  0  0  0  0
    0.8250   -7.6991   35.9770 H   0  0  0  0  0  0  0  0  0  0  0  0
    2.8033   -5.1049   31.0022 H   0  0  0  0  0  0  0  0  0  0  0  0
    1.6791   -6.7667   29.5670 H   0  0  0  0  0  0  0  0  0  0  0  0
   -1.1327   -6.8885   34.5572 H   0  0  0  0  0  0  0  0  0  0  0  0
   -1.7064   -8.4500   34.2529 H   0  0  0  0  0  0  0  0  0  0  0  0
   -1.2724   -1.8226   28.0123 H   0  0  0  0  0  0  0  0  0  0  0  0
   -2.4370   -0.3440   26.4942 H   0  0  0  0  0  0  0  0  0  0  0  0
   -3.2875    2.7132   27.0011 H   0  0  0  0  0  0  0  0  0  0  0  0
   -2.7631    1.8751   25.5229 H   0  0  0  0  0  0  0  0  0  0  0  0
   -2.3360    4.2254   25.8326 H   0  0  0  0  0  0  0  0  0  0  0  0
   -0.4716    3.0637   28.2375 H   0  0  0  0  0  0  0  0  0  0  0  0
    0.7725    1.5772   29.7402 H   0  0  0  0  0  0  0  0  0  0  0  0
  1  2  1  0
  2  3  1  0
  3  4  1  0
  4  5  1  0
  5  6  1  0
  6  7  2  0
  7  8  1  0
  8  9  1  0
  9 10  1  0
 10 11  1  0
  9 12  1  0
 12 13  1  0
 12 14  1  0
 14 15  1  0
  7 16  1  0
 16 17  1  0
 17 18  2  0
 18 19  1  0
 19 20  2  0
 20 21  1  0
 21 22  2  0
 22 23  1  0
 22 24  1  0
 24 25  1  0
 25 26  1  0
 26 27  2  0
  3 28  1  0
 28 29  2  0
 29 30  1  0
 30 31  2  0
 31 32  1  0
 32 33  1  0
 31 34  1  0
 34 35  2  0
 26  5  1  0
 35 28  1  0
 25 16  2  0
 24 19  1  0
  1 36  1  0
  1 37  1  0
  1 38  1  0
  2 39  1  0
  2 40  1  0
  3 41  1  0
  4 42  1  0
  4 43  1  0
  6 44  1  0
  8 45  1  0
  8 46  1  0
  9 47  1  0
 11 48  1  0
 11 49  1  0
 11 50  1  0
 12 51  1  0
 13 52  1  0
 13 53  1  0
 13 54  1  0
 15 55  1  0
 15 56  1  0
 15 57  1  0
 17 58  1  0
 18 59  1  0
 23 60  1  0
 23 61  1  0
 29 62  1  0
 30 63  1  0
 32 64  1  0
 32 65  1  0
 33 66  1  0
 34 67  1  0
 35 68  1  0
M  END
>  <Energy>  (300) 
179.82521125513037

>  <compound_id>  (300) 
3817

>  <target_id>  (300) 
1

>  <reference_id>  (300) 
78

>  <inspiration_ids>  (300) 
[141, 78]

>  <energy_score>  (300) 
-13.13752522219363

>  <distance_score>  (300) 
1.3318336002575957

>  <path>  (300) 
/opt/xchem-fragalysis-2/maxwin/BulkDock/SCRATCH/505735/C3817-P78/C3817-P78.minimised.mol

>  <scratch_subdir>  (300) 
/opt/xchem-fragalysis-2/maxwin/BulkDock/SCRATCH/505735/C3817-P78

>  <fragmenstein_runtime>  (300) 
9.138796091079712

>  <fragmenstein_outcome>  (300) 
too moved

>  <fragmenstein_mode>  (300) 
expansion

>  <fragmenstein_error>  (300) 


$$$$
C3817-P141
     RDKit          3D

 68 71  0  0  0  0  0  0  0  0999 V2000
    2.6724   -2.0371   28.5769 C   0  0  0  0  0  0  0  0  0  0  0  0
    1.5743   -2.4693   29.5428 C   0  0  0  0  0  0  0  0  0  0  0  0
    0.8794   -1.2757   30.2197 C   0  0  0  0  0  0  0  0  0  0  0  0
   -0.0637   -1.6219   31.4000 C   0  0  0  0  0  0  0  0  0  0  0  0
    0.2757   -2.7891   32.2265 N   0  0  0  0  0  0  0  0  0  0  0  0
    0.7802   -2.6051   33.4957 C   0  0  0  0  0  0  0  0  0  0  0  0
    0.6983   -3.5684   34.4356 C   0  0  0  0  0  0  0  0  0  0  0  0
    1.0593   -3.2596   35.8734 C   0  0  0  0  0  0  0  0  0  0  0  0
   -0.1582   -3.0897   36.8201 C   0  0  0  0  0  0  0  0  0  0  0  0
    0.3986   -2.9874   38.1455 O   0  0  0  0  0  0  0  0  0  0  0  0
   -0.5468   -3.2248   39.1836 C   0  0  0  0  0  0  0  0  0  0  0  0
   -1.0618   -1.8787   36.4390 C   0  0  0  0  0  0  0  0  0  0  0  0
   -0.4328   -0.5354   36.8101 C   0  0  0  0  0  0  0  0  0  0  0  0
   -2.3285   -2.0295   37.1084 O   0  0  0  0  0  0  0  0  0  0  0  0
   -3.3876   -1.3088   36.4943 C   0  0  0  0  0  0  0  0  0  0  0  0
    0.2218   -4.9141   34.0742 C   0  0  0  0  0  0  0  0  0  0  0  0
    0.0695   -6.0475   35.0124 C   0  0  0  0  0  0  0  0  0  0  0  0
   -0.4852   -7.2204   34.6517 C   0  0  0  0  0  0  0  0  0  0  0  0
   -0.8249   -7.4362   33.2970 C   0  0  0  0  0  0  0  0  0  0  0  0
   -1.3866   -8.4365   32.6609 N   0  0  0  0  0  0  0  0  0  0  0  0
   -1.3010   -8.1920   31.3175 N   0  0  0  0  0  0  0  0  0  0  0  0
   -0.7076   -7.0342   31.1668 C   0  0  0  0  0  0  0  0  0  0  0  0
   -0.2996   -6.4952   30.0017 N   0  0  0  0  0  0  0  0  0  0  0  0
   -0.5326   -6.4316   32.3999 N   0  0  0  0  0  0  0  0  0  0  0  0
   -0.1319   -5.1509   32.7854 C   0  0  0  0  0  0  0  0  0  0  0  0
   -0.2864   -3.9978   31.8577 C   0  0  0  0  0  0  0  0  0  0  0  0
   -0.9702   -4.1226   30.8433 O   0  0  0  0  0  0  0  0  0  0  0  0
    0.0951   -0.4019   29.2423 C   0  0  0  0  0  0  0  0  0  0  0  0
   -0.9081   -0.9381   28.4220 C   0  0  0  0  0  0  0  0  0  0  0  0
   -1.6708   -0.1117   27.5917 C   0  0  0  0  0  0  0  0  0  0  0  0
   -1.4674    1.2707   27.5672 C   0  0  0  0  0  0  0  0  0  0  0  0
   -2.3513    2.1675   26.7432 C   0  0  0  0  0  0  0  0  0  0  0  0
   -1.5659    2.9522   25.8546 O   0  0  0  0  0  0  0  0  0  0  0  0
   -0.4496    1.8041   28.3649 C   0  0  0  0  0  0  0  0  0  0  0  0
    0.3239    0.9794   29.1905 C   0  0  0  0  0  0  0  0  0  0  0  0
    2.2834   -1.3998   27.7789 H   0  0  0  0  0  0  0  0  0  0  0  0
    3.1333   -2.9157   28.1143 H   0  0  0  0  0  0  0  0  0  0  0  0
    3.4567   -1.4830   29.1028 H   0  0  0  0  0  0  0  0  0  0  0  0
    2.0455   -3.1043   30.3020 H   0  0  0  0  0  0  0  0  0  0  0  0
    0.8544   -3.0989   29.0085 H   0  0  0  0  0  0  0  0  0  0  0  0
    1.6881   -0.6679   30.6515 H   0  0  0  0  0  0  0  0  0  0  0  0
   -1.0899   -1.7712   31.0375 H   0  0  0  0  0  0  0  0  0  0  0  0
   -0.1409   -0.7405   32.0533 H   0  0  0  0  0  0  0  0  0  0  0  0
    1.1293   -1.6038   33.7373 H   0  0  0  0  0  0  0  0  0  0  0  0
    1.6819   -2.3564   35.9250 H   0  0  0  0  0  0  0  0  0  0  0  0
    1.7217   -4.0445   36.2631 H   0  0  0  0  0  0  0  0  0  0  0  0
   -0.7680   -4.0005   36.7848 H   0  0  0  0  0  0  0  0  0  0  0  0
   -1.1131   -4.1433   39.0024 H   0  0  0  0  0  0  0  0  0  0  0  0
    0.0060   -3.3413   40.1200 H   0  0  0  0  0  0  0  0  0  0  0  0
   -1.2198   -2.3725   39.2997 H   0  0  0  0  0  0  0  0  0  0  0  0
   -1.2549   -1.9078   35.3614 H   0  0  0  0  0  0  0  0  0  0  0  0
    0.5657   -0.4212   36.3799 H   0  0  0  0  0  0  0  0  0  0  0  0
   -1.0428    0.2958   36.4428 H   0  0  0  0  0  0  0  0  0  0  0  0
   -0.3666   -0.4132   37.8960 H   0  0  0  0  0  0  0  0  0  0  0  0
   -4.3093   -1.5287   37.0401 H   0  0  0  0  0  0  0  0  0  0  0  0
   -3.5188   -1.6267   35.4555 H   0  0  0  0  0  0  0  0  0  0  0  0
   -3.2126   -0.2312   36.5421 H   0  0  0  0  0  0  0  0  0  0  0  0
    0.3648   -5.9128   36.0488 H   0  0  0  0  0  0  0  0  0  0  0  0
   -0.6377   -8.0289   35.3590 H   0  0  0  0  0  0  0  0  0  0  0  0
   -0.8322   -6.8578   29.2130 H   0  0  0  0  0  0  0  0  0  0  0  0
   -0.3423   -5.4720   29.9347 H   0  0  0  0  0  0  0  0  0  0  0  0
   -1.1196   -2.0063   28.4118 H   0  0  0  0  0  0  0  0  0  0  0  0
   -2.4180   -0.5729   26.9498 H   0  0  0  0  0  0  0  0  0  0  0  0
   -2.9082    2.8375   27.4030 H   0  0  0  0  0  0  0  0  0  0  0  0
   -3.0673    1.5896   26.1512 H   0  0  0  0  0  0  0  0  0  0  0  0
   -2.1732    3.6242   25.4959 H   0  0  0  0  0  0  0  0  0  0  0  0
   -0.2635    2.8769   28.3495 H   0  0  0  0  0  0  0  0  0  0  0  0
    1.0999    1.4368   29.7995 H   0  0  0  0  0  0  0  0  0  0  0  0
  1  2  1  0
  2  3  1  0
  3  4  1  0
  4  5  1  0
  5  6  1  0
  6  7  2  0
  7  8  1  0
  8  9  1  0
  9 10  1  0
 10 11  1  0
  9 12  1  0
 12 13  1  0
 12 14  1  0
 14 15  1  0
  7 16  1  0
 16 17  1  0
 17 18  2  0
 18 19  1  0
 19 20  2  0
 20 21  1  0
 21 22  2  0
 22 23  1  0
 22 24  1  0
 24 25  1  0
 25 26  1  0
 26 27  2  0
  3 28  1  0
 28 29  2  0
 29 30  1  0
 30 31  2  0
 31 32  1  0
 32 33  1  0
 31 34  1  0
 34 35  2  0
 26  5  1  0
 35 28  1  0
 25 16  2  0
 24 19  1  0
  1 36  1  0
  1 37  1  0
  1 38  1  0
  2 39  1  0
  2 40  1  0
  3 41  1  0
  4 42  1  0
  4 43  1  0
  6 44  1  0
  8 45  1  0
  8 46  1  0
  9 47  1  0
 11 48  1  0
 11 49  1  0
 11 50  1  0
 12 51  1  0
 13 52  1  0
 13 53  1  0
 13 54  1  0
 15 55  1  0
 15 56  1  0
 15 57  1  0
 17 58  1  0
 18 59  1  0
 23 60  1  0
 23 61  1  0
 29 62  1  0
 30 63  1  0
 32 64  1  0
 32 65  1  0
 33 66  1  0
 34 67  1  0
 35 68  1  0
M  END
>  <Energy>  (301) 
99.3725612805341

>  <compound_id>  (301) 
3817

>  <target_id>  (301) 
1

>  <reference_id>  (301) 
141

>  <inspiration_ids>  (301) 
[141, 105]

>  <energy_score>  (301) 
-114.1576558118582

>  <distance_score>  (301) 
0.7667682985621813

>  <path>  (301) 
/opt/xchem-fragalysis-2/maxwin/BulkDock/SCRATCH/505735/C3817-P141/C3817-P141.minimised.mol

>  <scratch_subdir>  (301) 
/opt/xchem-fragalysis-2/maxwin/BulkDock/SCRATCH/505735/C3817-P141

>  <fragmenstein_runtime>  (301) 
6.573750972747803

>  <fragmenstein_outcome>  (301) 
acceptable

>  <fragmenstein_mode>  (301) 
expansion

>  <fragmenstein_error>  (301) 


$$$$
C3817-P105
     RDKit          3D

 68 71  0  0  0  0  0  0  0  0999 V2000
    2.6506   -2.1600   28.4584 C   0  0  0  0  0  0  0  0  0  0  0  0
    1.5970   -2.5619   29.4849 C   0  0  0  0  0  0  0  0  0  0  0  0
    0.9226   -1.3518   30.1535 C   0  0  0  0  0  0  0  0  0  0  0  0
   -0.0017   -1.6813   31.3527 C   0  0  0  0  0  0  0  0  0  0  0  0
    0.3426   -2.8522   32.1730 N   0  0  0  0  0  0  0  0  0  0  0  0
    0.9545   -2.6785   33.3937 C   0  0  0  0  0  0  0  0  0  0  0  0
    0.9247   -3.6366   34.3414 C   0  0  0  0  0  0  0  0  0  0  0  0
    1.4533   -3.3378   35.7285 C   0  0  0  0  0  0  0  0  0  0  0  0
    0.3724   -3.1207   36.8186 C   0  0  0  0  0  0  0  0  0  0  0  0
    1.1073   -2.9224   38.0434 O   0  0  0  0  0  0  0  0  0  0  0  0
    0.3173   -3.0612   39.2192 C   0  0  0  0  0  0  0  0  0  0  0  0
   -0.6092   -1.9569   36.4902 C   0  0  0  0  0  0  0  0  0  0  0  0
    0.0289   -0.5793   36.6660 C   0  0  0  0  0  0  0  0  0  0  0  0
   -1.7564   -2.0834   37.3512 O   0  0  0  0  0  0  0  0  0  0  0  0
   -2.9214   -1.4427   36.8493 C   0  0  0  0  0  0  0  0  0  0  0  0
    0.3618   -4.9630   34.0327 C   0  0  0  0  0  0  0  0  0  0  0  0
    0.2326   -6.0772   34.9952 C   0  0  0  0  0  0  0  0  0  0  0  0
   -0.3894   -7.2324   34.6931 C   0  0  0  0  0  0  0  0  0  0  0  0
   -0.8279   -7.4559   33.3685 C   0  0  0  0  0  0  0  0  0  0  0  0
   -1.4620   -8.4504   32.7937 N   0  0  0  0  0  0  0  0  0  0  0  0
   -1.4653   -8.2324   31.4449 N   0  0  0  0  0  0  0  0  0  0  0  0
   -0.8621   -7.0892   31.2300 C   0  0  0  0  0  0  0  0  0  0  0  0
   -0.5296   -6.5834   30.0321 N   0  0  0  0  0  0  0  0  0  0  0  0
   -0.5685   -6.4733   32.4358 N   0  0  0  0  0  0  0  0  0  0  0  0
   -0.0933   -5.2010   32.7750 C   0  0  0  0  0  0  0  0  0  0  0  0
   -0.2669   -4.0498   31.8464 C   0  0  0  0  0  0  0  0  0  0  0  0
   -1.0113   -4.1620   30.8755 O   0  0  0  0  0  0  0  0  0  0  0  0
    0.1316   -0.4862   29.1750 C   0  0  0  0  0  0  0  0  0  0  0  0
   -0.8680   -1.0314   28.3562 C   0  0  0  0  0  0  0  0  0  0  0  0
   -1.6237   -0.2151   27.5099 C   0  0  0  0  0  0  0  0  0  0  0  0
   -1.4133    1.1666   27.4634 C   0  0  0  0  0  0  0  0  0  0  0  0
   -2.3007    2.0472   26.6239 C   0  0  0  0  0  0  0  0  0  0  0  0
   -1.5391    3.0576   25.9729 O   0  0  0  0  0  0  0  0  0  0  0  0
   -0.4082    1.7098   28.2716 C   0  0  0  0  0  0  0  0  0  0  0  0
    0.3578    0.8950   29.1135 C   0  0  0  0  0  0  0  0  0  0  0  0
    2.2198   -1.5714   27.6446 H   0  0  0  0  0  0  0  0  0  0  0  0
    3.1093   -3.0529   28.0216 H   0  0  0  0  0  0  0  0  0  0  0  0
    3.4438   -1.5677   28.9257 H   0  0  0  0  0  0  0  0  0  0  0  0
    2.1023   -3.1699   30.2445 H   0  0  0  0  0  0  0  0  0  0  0  0
    0.8585   -3.2124   29.0031 H   0  0  0  0  0  0  0  0  0  0  0  0
    1.7434   -0.7447   30.5626 H   0  0  0  0  0  0  0  0  0  0  0  0
   -1.0363   -1.8161   31.0097 H   0  0  0  0  0  0  0  0  0  0  0  0
   -0.0537   -0.7997   32.0082 H   0  0  0  0  0  0  0  0  0  0  0  0
    1.3622   -1.6903   33.5938 H   0  0  0  0  0  0  0  0  0  0  0  0
    2.1083   -2.4560   35.7018 H   0  0  0  0  0  0  0  0  0  0  0  0
    2.1308   -4.1434   36.0437 H   0  0  0  0  0  0  0  0  0  0  0  0
   -0.2115   -4.0418   36.9299 H   0  0  0  0  0  0  0  0  0  0  0  0
   -0.2873   -3.9725   39.1871 H   0  0  0  0  0  0  0  0  0  0  0  0
    0.9970   -3.1298   40.0734 H   0  0  0  0  0  0  0  0  0  0  0  0
   -0.3146   -2.1830   39.3692 H   0  0  0  0  0  0  0  0  0  0  0  0
   -0.9591   -2.0699   35.4585 H   0  0  0  0  0  0  0  0  0  0  0  0
    0.9477   -0.4804   36.0818 H   0  0  0  0  0  0  0  0  0  0  0  0
   -0.6540    0.2109   36.3384 H   0  0  0  0  0  0  0  0  0  0  0  0
    0.2547   -0.3753   37.7176 H   0  0  0  0  0  0  0  0  0  0  0  0
   -3.7448   -1.6454   37.5397 H   0  0  0  0  0  0  0  0  0  0  0  0
   -3.1894   -1.8426   35.8668 H   0  0  0  0  0  0  0  0  0  0  0  0
   -2.7820   -0.3603   36.7924 H   0  0  0  0  0  0  0  0  0  0  0  0
    0.6093   -5.9435   36.0045 H   0  0  0  0  0  0  0  0  0  0  0  0
   -0.5185   -8.0250   35.4236 H   0  0  0  0  0  0  0  0  0  0  0  0
   -1.0667   -6.9700   29.2560 H   0  0  0  0  0  0  0  0  0  0  0  0
   -0.5311   -5.5624   29.9323 H   0  0  0  0  0  0  0  0  0  0  0  0
   -1.0806   -2.0997   28.3585 H   0  0  0  0  0  0  0  0  0  0  0  0
   -2.3685   -0.6865   26.8729 H   0  0  0  0  0  0  0  0  0  0  0  0
   -3.0478    2.5233   27.2624 H   0  0  0  0  0  0  0  0  0  0  0  0
   -2.8155    1.4684   25.8525 H   0  0  0  0  0  0  0  0  0  0  0  0
   -2.1767    3.7533   25.7305 H   0  0  0  0  0  0  0  0  0  0  0  0
   -0.2241    2.7829   28.2508 H   0  0  0  0  0  0  0  0  0  0  0  0
    1.1279    1.3593   29.7247 H   0  0  0  0  0  0  0  0  0  0  0  0
  1  2  1  0
  2  3  1  0
  3  4  1  0
  4  5  1  0
  5  6  1  0
  6  7  2  0
  7  8  1  0
  8  9  1  0
  9 10  1  0
 10 11  1  0
  9 12  1  0
 12 13  1  0
 12 14  1  0
 14 15  1  0
  7 16  1  0
 16 17  1  0
 17 18  2  0
 18 19  1  0
 19 20  2  0
 20 21  1  0
 21 22  2  0
 22 23  1  0
 22 24  1  0
 24 25  1  0
 25 26  1  0
 26 27  2  0
  3 28  1  0
 28 29  2  0
 29 30  1  0
 30 31  2  0
 31 32  1  0
 32 33  1  0
 31 34  1  0
 34 35  2  0
 26  5  1  0
 35 28  1  0
 25 16  2  0
 24 19  1  0
  1 36  1  0
  1 37  1  0
  1 38  1  0
  2 39  1  0
  2 40  1  0
  3 41  1  0
  4 42  1  0
  4 43  1  0
  6 44  1  0
  8 45  1  0
  8 46  1  0
  9 47  1  0
 11 48  1  0
 11 49  1  0
 11 50  1  0
 12 51  1  0
 13 52  1  0
 13 53  1  0
 13 54  1  0
 15 55  1  0
 15 56  1  0
 15 57  1  0
 17 58  1  0
 18 59  1  0
 23 60  1  0
 23 61  1  0
 29 62  1  0
 30 63  1  0
 32 64  1  0
 32 65  1  0
 33 66  1  0
 34 67  1  0
 35 68  1  0
M  END
>  <Energy>  (302) 
98.087503348537538

>  <compound_id>  (302) 
3817

>  <target_id>  (302) 
1

>  <reference_id>  (302) 
105

>  <inspiration_ids>  (302) 
[141, 105]

>  <energy_score>  (302) 
-115.44271374385414

>  <distance_score>  (302) 
0.7331049450466206

>  <path>  (302) 
/opt/xchem-fragalysis-2/maxwin/BulkDock/SCRATCH/505735/C3817-P105/C3817-P105.minimised.mol

>  <scratch_subdir>  (302) 
/opt/xchem-fragalysis-2/maxwin/BulkDock/SCRATCH/505735/C3817-P105

>  <fragmenstein_runtime>  (302) 
5.431104898452759

>  <fragmenstein_outcome>  (302) 
acceptable

>  <fragmenstein_mode>  (302) 
expansion

>  <fragmenstein_error>  (302) 


$$$$
C4045-P141
     RDKit          3D

 68 70  0  0  0  0  0  0  0  0999 V2000
   -6.7933   -1.7783   33.9697 C   0  0  0  0  0  0  0  0  0  0  0  0
   -5.3402   -2.0928   34.2799 C   0  0  0  0  0  0  0  0  0  0  0  0
   -5.0460   -1.5174   35.5319 O   0  0  0  0  0  0  0  0  0  0  0  0
   -3.6988   -1.2324   35.9321 C   0  0  0  0  0  0  0  0  0  0  0  0
   -2.6036   -2.2499   35.5953 C   0  0  0  0  0  0  0  0  0  0  0  0
   -1.1745   -1.8314   35.9653 C   0  0  0  0  0  0  0  0  0  0  0  0
   -0.1297   -2.9125   35.6087 C   0  0  0  0  0  0  0  0  0  0  0  0
    1.0196   -2.4244   34.6782 C   0  0  0  0  0  0  0  0  0  0  0  0
    1.2988   -3.4203   33.5517 C   0  0  0  0  0  0  0  0  0  0  0  0
    2.4405   -3.0585   32.7239 N   0  0  0  0  0  0  0  0  0  0  0  0
    2.2146   -3.7104   31.4258 C   0  0  0  0  0  0  0  0  0  0  0  0
    0.8431   -4.4197   31.5466 C   0  0  0  0  0  0  0  0  0  0  0  0
    0.0942   -4.3376   30.3611 O   0  0  0  0  0  0  0  0  0  0  0  0
    1.0913   -5.9054   31.8770 C   0  0  0  0  0  0  0  0  0  0  0  0
   -0.0719   -6.7513   31.8763 N   0  0  0  0  0  0  0  0  0  0  0  0
   -0.4520   -7.5628   30.8547 C   0  0  0  0  0  0  0  0  0  0  0  0
   -1.5010   -8.2567   31.2148 N   0  0  0  0  0  0  0  0  0  0  0  0
   -1.7776   -7.9251   32.5186 N   0  0  0  0  0  0  0  0  0  0  0  0
   -0.9161   -7.0117   32.9032 C   0  0  0  0  0  0  0  0  0  0  0  0
    0.1911   -3.7141   32.6325 N   0  0  0  0  0  0  0  0  0  0  0  0
   -0.5919   -2.5336   32.2268 C   0  0  0  0  0  0  0  0  0  0  0  0
    0.0760   -1.3712   31.4840 C   0  0  0  0  0  0  0  0  0  0  0  0
   -0.8168   -0.1328   31.4254 C   0  0  0  0  0  0  0  0  0  0  0  0
   -1.2943    0.3876   32.8103 C   0  0  0  0  0  0  0  0  0  0  0  0
   -2.7596    0.0130   33.1332 C   0  0  0  0  0  0  0  0  0  0  0  0
   -3.4481    0.8195   34.2837 C   0  0  0  0  0  0  0  0  0  0  0  0
   -4.9405    1.0987   34.0681 C   0  0  0  0  0  0  0  0  0  0  0  0
   -5.0939    2.4692   33.7174 O   0  0  0  0  0  0  0  0  0  0  0  0
   -3.3052    0.2332   35.6854 C   0  0  0  0  0  0  0  0  0  0  0  0
   -7.4497   -2.1862   34.7441 H   0  0  0  0  0  0  0  0  0  0  0  0
   -6.9938   -0.7051   33.9586 H   0  0  0  0  0  0  0  0  0  0  0  0
   -7.0675   -2.1857   32.9965 H   0  0  0  0  0  0  0  0  0  0  0  0
   -4.7102   -1.7218   33.4769 H   0  0  0  0  0  0  0  0  0  0  0  0
   -5.2304   -3.1695   34.3465 H   0  0  0  0  0  0  0  0  0  0  0  0
   -3.7661   -1.2879   37.0287 H   0  0  0  0  0  0  0  0  0  0  0  0
   -2.7832   -3.1569   36.1640 H   0  0  0  0  0  0  0  0  0  0  0  0
   -2.6502   -2.5439   34.5511 H   0  0  0  0  0  0  0  0  0  0  0  0
   -1.1295   -1.6436   37.0454 H   0  0  0  0  0  0  0  0  0  0  0  0
   -0.8957   -0.9000   35.4769 H   0  0  0  0  0  0  0  0  0  0  0  0
   -0.6304   -3.7897   35.1829 H   0  0  0  0  0  0  0  0  0  0  0  0
    0.3267   -3.2667   36.5424 H   0  0  0  0  0  0  0  0  0  0  0  0
    0.8287   -1.4234   34.2869 H   0  0  0  0  0  0  0  0  0  0  0  0
    1.9243   -2.3217   35.2931 H   0  0  0  0  0  0  0  0  0  0  0  0
    1.5553   -4.3566   34.0658 H   0  0  0  0  0  0  0  0  0  0  0  0
    3.3128   -3.3492   33.1564 H   0  0  0  0  0  0  0  0  0  0  0  0
    3.0289   -4.4123   31.2144 H   0  0  0  0  0  0  0  0  0  0  0  0
    2.2245   -2.9612   30.6280 H   0  0  0  0  0  0  0  0  0  0  0  0
   -0.8279   -4.5165   30.6019 H   0  0  0  0  0  0  0  0  0  0  0  0
    1.7375   -6.2959   31.0881 H   0  0  0  0  0  0  0  0  0  0  0  0
    1.6220   -6.0716   32.8203 H   0  0  0  0  0  0  0  0  0  0  0  0
    0.0613   -7.6299   29.9101 H   0  0  0  0  0  0  0  0  0  0  0  0
   -0.8775   -6.5362   33.8741 H   0  0  0  0  0  0  0  0  0  0  0  0
   -1.4638   -2.8606   31.6452 H   0  0  0  0  0  0  0  0  0  0  0  0
   -1.0405   -2.1593   33.1401 H   0  0  0  0  0  0  0  0  0  0  0  0
    1.0060   -1.0679   31.9727 H   0  0  0  0  0  0  0  0  0  0  0  0
    0.3275   -1.6661   30.4598 H   0  0  0  0  0  0  0  0  0  0  0  0
   -0.2389    0.6662   30.9434 H   0  0  0  0  0  0  0  0  0  0  0  0
   -1.6743   -0.3245   30.7697 H   0  0  0  0  0  0  0  0  0  0  0  0
   -1.1709    1.4687   32.8147 H   0  0  0  0  0  0  0  0  0  0  0  0
   -0.6275    0.0483   33.6025 H   0  0  0  0  0  0  0  0  0  0  0  0
   -2.7889   -1.0455   33.3411 H   0  0  0  0  0  0  0  0  0  0  0  0
   -3.3390    0.0771   32.2123 H   0  0  0  0  0  0  0  0  0  0  0  0
   -2.9435    1.7940   34.3236 H   0  0  0  0  0  0  0  0  0  0  0  0
   -5.5556    0.9425   34.9585 H   0  0  0  0  0  0  0  0  0  0  0  0
   -5.3419    0.4948   33.2544 H   0  0  0  0  0  0  0  0  0  0  0  0
   -6.0457    2.5538   33.4870 H   0  0  0  0  0  0  0  0  0  0  0  0
   -3.9242    0.8437   36.3613 H   0  0  0  0  0  0  0  0  0  0  0  0
   -2.2933    0.4360   36.0482 H   0  0  0  0  0  0  0  0  0  0  0  0
  1  2  1  0
  2  3  1  0
  3  4  1  0
  4  5  1  0
  5  6  1  0
  6  7  1  0
  7  8  1  0
  8  9  1  0
  9 10  1  0
 10 11  1  0
 11 12  1  0
 12 13  1  0
 12 14  1  0
 14 15  1  0
 15 16  1  0
 16 17  2  0
 17 18  1  0
 18 19  2  0
 12 20  1  0
 20 21  1  0
 21 22  1  0
 22 23  1  0
 23 24  1  0
 24 25  1  0
 25 26  1  0
 26 27  1  0
 27 28  1  0
 26 29  1  0
 29  4  1  0
 20  9  1  0
 19 15  1  0
  1 30  1  0
  1 31  1  0
  1 32  1  0
  2 33  1  0
  2 34  1  0
  4 35  1  0
  5 36  1  0
  5 37  1  0
  6 38  1  0
  6 39  1  0
  7 40  1  0
  7 41  1  0
  8 42  1  0
  8 43  1  0
  9 44  1  0
 10 45  1  0
 11 46  1  0
 11 47  1  0
 13 48  1  0
 14 49  1  0
 14 50  1  0
 16 51  1  0
 19 52  1  0
 21 53  1  0
 21 54  1  0
 22 55  1  0
 22 56  1  0
 23 57  1  0
 23 58  1  0
 24 59  1  0
 24 60  1  0
 25 61  1  0
 25 62  1  0
 26 63  1  0
 27 64  1  0
 27 65  1  0
 28 66  1  0
 29 67  1  0
 29 68  1  0
M  END
>  <Energy>  (303) 
54.263167114220415

>  <compound_id>  (303) 
4045

>  <target_id>  (303) 
1

>  <reference_id>  (303) 
141

>  <inspiration_ids>  (303) 
[141, 121]

>  <energy_score>  (303) 
-45.720660232042974

>  <distance_score>  (303) 
2.5318047873165996

>  <path>  (303) 
/opt/xchem-fragalysis-2/maxwin/BulkDock/SCRATCH/505735/C4045-P141/C4045-P141.minimised.mol

>  <scratch_subdir>  (303) 
/opt/xchem-fragalysis-2/maxwin/BulkDock/SCRATCH/505735/C4045-P141

>  <fragmenstein_runtime>  (303) 
14.776760578155518

>  <fragmenstein_outcome>  (303) 
too moved

>  <fragmenstein_mode>  (303) 
expansion

>  <fragmenstein_error>  (303) 


$$$$
C4045-P121
     RDKit          3D

 68 70  0  0  0  0  0  0  0  0999 V2000
   -5.9869   -2.3087   32.7516 C   0  0  0  0  0  0  0  0  0  0  0  0
   -4.9279   -2.3813   33.8269 C   0  0  0  0  0  0  0  0  0  0  0  0
   -5.1347   -1.2509   34.6372 O   0  0  0  0  0  0  0  0  0  0  0  0
   -4.2161   -0.9113   35.6775 C   0  0  0  0  0  0  0  0  0  0  0  0
   -3.5141   -2.0626   36.4205 C   0  0  0  0  0  0  0  0  0  0  0  0
   -1.9784   -2.1442   36.4396 C   0  0  0  0  0  0  0  0  0  0  0  0
   -1.3723   -2.8484   35.2199 C   0  0  0  0  0  0  0  0  0  0  0  0
   -0.0947   -2.2178   34.6323 C   0  0  0  0  0  0  0  0  0  0  0  0
    0.5163   -3.1037   33.5422 C   0  0  0  0  0  0  0  0  0  0  0  0
    1.7200   -2.5725   32.9285 N   0  0  0  0  0  0  0  0  0  0  0  0
    1.9537   -3.4496   31.7669 C   0  0  0  0  0  0  0  0  0  0  0  0
    0.6498   -4.2761   31.5917 C   0  0  0  0  0  0  0  0  0  0  0  0
    0.2511   -4.2930   30.2432 O   0  0  0  0  0  0  0  0  0  0  0  0
    0.9003   -5.7331   32.0537 C   0  0  0  0  0  0  0  0  0  0  0  0
   -0.2563   -6.5981   32.0116 N   0  0  0  0  0  0  0  0  0  0  0  0
   -0.7549   -7.2270   30.9147 C   0  0  0  0  0  0  0  0  0  0  0  0
   -1.7075   -8.0539   31.2768 N   0  0  0  0  0  0  0  0  0  0  0  0
   -1.7989   -8.0028   32.6468 N   0  0  0  0  0  0  0  0  0  0  0  0
   -0.9425   -7.1005   33.0720 C   0  0  0  0  0  0  0  0  0  0  0  0
   -0.3147   -3.5757   32.4353 N   0  0  0  0  0  0  0  0  0  0  0  0
   -1.1676   -2.5986   31.7410 C   0  0  0  0  0  0  0  0  0  0  0  0
   -0.6317   -1.3953   30.9514 C   0  0  0  0  0  0  0  0  0  0  0  0
   -0.3359   -0.1315   31.7552 C   0  0  0  0  0  0  0  0  0  0  0  0
   -1.5458    0.7385   32.2044 C   0  0  0  0  0  0  0  0  0  0  0  0
   -2.7210    0.1267   33.0017 C   0  0  0  0  0  0  0  0  0  0  0  0
   -3.4420    1.0343   34.0637 C   0  0  0  0  0  0  0  0  0  0  0  0
   -4.8856    1.4758   33.7891 C   0  0  0  0  0  0  0  0  0  0  0  0
   -5.5813    1.8686   34.9677 O   0  0  0  0  0  0  0  0  0  0  0  0
   -3.3536    0.3444   35.4237 C   0  0  0  0  0  0  0  0  0  0  0  0
   -6.9775   -2.4401   33.1927 H   0  0  0  0  0  0  0  0  0  0  0  0
   -6.0206   -1.3197   32.2966 H   0  0  0  0  0  0  0  0  0  0  0  0
   -5.8182   -3.0590   31.9782 H   0  0  0  0  0  0  0  0  0  0  0  0
   -3.9389   -2.3711   33.3765 H   0  0  0  0  0  0  0  0  0  0  0  0
   -5.0764   -3.2973   34.3979 H   0  0  0  0  0  0  0  0  0  0  0  0
   -4.9296   -0.5500   36.4339 H   0  0  0  0  0  0  0  0  0  0  0  0
   -3.9117   -3.0140   36.0889 H   0  0  0  0  0  0  0  0  0  0  0  0
   -3.8123   -1.9794   37.4760 H   0  0  0  0  0  0  0  0  0  0  0  0
   -1.4927   -1.1907   36.6535 H   0  0  0  0  0  0  0  0  0  0  0  0
   -1.7100   -2.7571   37.3104 H   0  0  0  0  0  0  0  0  0  0  0  0
   -1.1404   -3.8807   35.5104 H   0  0  0  0  0  0  0  0  0  0  0  0
   -2.1235   -2.9048   34.4362 H   0  0  0  0  0  0  0  0  0  0  0  0
   -0.3209   -1.2108   34.2903 H   0  0  0  0  0  0  0  0  0  0  0  0
    0.6379   -2.0992   35.4419 H   0  0  0  0  0  0  0  0  0  0  0  0
    0.8225   -3.9963   34.1071 H   0  0  0  0  0  0  0  0  0  0  0  0
    2.5018   -2.6004   33.5777 H   0  0  0  0  0  0  0  0  0  0  0  0
    2.8189   -4.0935   31.9624 H   0  0  0  0  0  0  0  0  0  0  0  0
    2.1827   -2.8385   30.8881 H   0  0  0  0  0  0  0  0  0  0  0  0
   -0.6685   -4.5952   30.2176 H   0  0  0  0  0  0  0  0  0  0  0  0
    1.6437   -6.1873   31.3894 H   0  0  0  0  0  0  0  0  0  0  0  0
    1.3130   -5.7844   33.0672 H   0  0  0  0  0  0  0  0  0  0  0  0
   -0.3957   -7.0682   29.9071 H   0  0  0  0  0  0  0  0  0  0  0  0
   -0.7767   -6.8039   34.0983 H   0  0  0  0  0  0  0  0  0  0  0  0
   -1.7876   -3.1693   31.0364 H   0  0  0  0  0  0  0  0  0  0  0  0
   -1.9218   -2.2638   32.4403 H   0  0  0  0  0  0  0  0  0  0  0  0
    0.2634   -1.6785   30.3899 H   0  0  0  0  0  0  0  0  0  0  0  0
   -1.3724   -1.1357   30.1840 H   0  0  0  0  0  0  0  0  0  0  0  0
    0.2714    0.5178   31.1082 H   0  0  0  0  0  0  0  0  0  0  0  0
    0.3096   -0.3356   32.6067 H   0  0  0  0  0  0  0  0  0  0  0  0
   -1.9559    1.1306   31.2745 H   0  0  0  0  0  0  0  0  0  0  0  0
   -1.1299    1.5803   32.7688 H   0  0  0  0  0  0  0  0  0  0  0  0
   -2.3095   -0.7143   33.5506 H   0  0  0  0  0  0  0  0  0  0  0  0
   -3.4519   -0.2798   32.3012 H   0  0  0  0  0  0  0  0  0  0  0  0
   -2.8536    1.9569   34.1644 H   0  0  0  0  0  0  0  0  0  0  0  0
   -5.4580    0.7014   33.2786 H   0  0  0  0  0  0  0  0  0  0  0  0
   -4.8948    2.3787   33.1847 H   0  0  0  0  0  0  0  0  0  0  0  0
   -6.5062    1.9931   34.6722 H   0  0  0  0  0  0  0  0  0  0  0  0
   -3.5963    1.0759   36.2091 H   0  0  0  0  0  0  0  0  0  0  0  0
   -2.2935    0.1680   35.6002 H   0  0  0  0  0  0  0  0  0  0  0  0
  1  2  1  0
  2  3  1  0
  3  4  1  0
  4  5  1  0
  5  6  1  0
  6  7  1  0
  7  8  1  0
  8  9  1  0
  9 10  1  0
 10 11  1  0
 11 12  1  0
 12 13  1  0
 12 14  1  0
 14 15  1  0
 15 16  1  0
 16 17  2  0
 17 18  1  0
 18 19  2  0
 12 20  1  0
 20 21  1  0
 21 22  1  0
 22 23  1  0
 23 24  1  0
 24 25  1  0
 25 26  1  0
 26 27  1  0
 27 28  1  0
 26 29  1  0
 29  4  1  0
 20  9  1  0
 19 15  1  0
  1 30  1  0
  1 31  1  0
  1 32  1  0
  2 33  1  0
  2 34  1  0
  4 35  1  0
  5 36  1  0
  5 37  1  0
  6 38  1  0
  6 39  1  0
  7 40  1  0
  7 41  1  0
  8 42  1  0
  8 43  1  0
  9 44  1  0
 10 45  1  0
 11 46  1  0
 11 47  1  0
 13 48  1  0
 14 49  1  0
 14 50  1  0
 16 51  1  0
 19 52  1  0
 21 53  1  0
 21 54  1  0
 22 55  1  0
 22 56  1  0
 23 57  1  0
 23 58  1  0
 24 59  1  0
 24 60  1  0
 25 61  1  0
 25 62  1  0
 26 63  1  0
 27 64  1  0
 27 65  1  0
 28 66  1  0
 29 67  1  0
 29 68  1  0
M  END
>  <Energy>  (304) 
66.171410261675646

>  <compound_id>  (304) 
4045

>  <target_id>  (304) 
1

>  <reference_id>  (304) 
121

>  <inspiration_ids>  (304) 
[141, 121]

>  <energy_score>  (304) 
-33.81241708458933

>  <distance_score>  (304) 
2.4041532259647065

>  <path>  (304) 
/opt/xchem-fragalysis-2/maxwin/BulkDock/SCRATCH/505735/C4045-P121/C4045-P121.minimised.mol

>  <scratch_subdir>  (304) 
/opt/xchem-fragalysis-2/maxwin/BulkDock/SCRATCH/505735/C4045-P121

>  <fragmenstein_runtime>  (304) 
14.833674907684326

>  <fragmenstein_outcome>  (304) 
too moved

>  <fragmenstein_mode>  (304) 
expansion

>  <fragmenstein_error>  (304) 


$$$$
C3934-P141
     RDKit          3D

 67 70  0  0  0  0  0  0  0  0999 V2000
    2.7616    0.7758   29.6685 C   0  0  0  0  0  0  0  0  0  0  0  0
    1.6703    0.3275   30.6408 C   0  0  0  0  0  0  0  0  0  0  0  0
    0.4797   -0.4544   30.0144 C   0  0  0  0  0  0  0  0  0  0  0  0
    0.9162   -1.8578   29.4981 C   0  0  0  0  0  0  0  0  0  0  0  0
    1.6370   -2.6877   30.4813 N   0  0  0  0  0  0  0  0  0  0  0  0
    3.0040   -2.6011   30.5206 C   0  0  0  0  0  0  0  0  0  0  0  0
    3.7475   -3.2833   31.3963 C   0  0  0  0  0  0  0  0  0  0  0  0
    5.2467   -3.0799   31.3662 C   0  0  0  0  0  0  0  0  0  0  0  0
    6.0616   -3.9921   30.4214 C   0  0  0  0  0  0  0  0  0  0  0  0
    5.7415   -4.0015   28.8966 C   0  0  0  0  0  0  0  0  0  0  0  0
    4.4923   -4.8342   28.5795 C   0  0  0  0  0  0  0  0  0  0  0  0
    5.7433   -2.5705   28.2803 C   0  0  0  0  0  0  0  0  0  0  0  0
    6.1387   -1.6624   28.9502 O   0  0  0  0  0  0  0  0  0  0  0  0
    5.2497   -2.5940   26.9375 N   0  0  0  0  0  0  0  0  0  0  0  0
    4.9871   -1.5279   26.0116 C   0  0  0  0  0  0  0  0  0  0  0  0
    3.0854   -4.1768   32.3495 C   0  0  0  0  0  0  0  0  0  0  0  0
    3.8212   -4.9054   33.3914 C   0  0  0  0  0  0  0  0  0  0  0  0
    3.2546   -5.8405   34.1660 C   0  0  0  0  0  0  0  0  0  0  0  0
    1.9020   -6.1703   33.9681 C   0  0  0  0  0  0  0  0  0  0  0  0
    1.1763   -7.1374   34.4730 N   0  0  0  0  0  0  0  0  0  0  0  0
   -0.1041   -6.9443   34.0495 N   0  0  0  0  0  0  0  0  0  0  0  0
   -0.1290   -5.8835   33.2750 C   0  0  0  0  0  0  0  0  0  0  0  0
   -1.2426   -5.3164   32.7822 N   0  0  0  0  0  0  0  0  0  0  0  0
    1.1553   -5.3806   33.0997 N   0  0  0  0  0  0  0  0  0  0  0  0
    1.7319   -4.3657   32.2948 C   0  0  0  0  0  0  0  0  0  0  0  0
    0.9255   -3.4825   31.3706 C   0  0  0  0  0  0  0  0  0  0  0  0
   -0.3030   -3.4450   31.4240 O   0  0  0  0  0  0  0  0  0  0  0  0
   -0.3156    0.3513   28.9767 C   0  0  0  0  0  0  0  0  0  0  0  0
   -1.1717   -0.2789   28.0636 C   0  0  0  0  0  0  0  0  0  0  0  0
   -1.9159    0.4579   27.1354 C   0  0  0  0  0  0  0  0  0  0  0  0
   -1.8637    1.8513   27.1039 C   0  0  0  0  0  0  0  0  0  0  0  0
   -2.7090    2.6313   26.1410 C   0  0  0  0  0  0  0  0  0  0  0  0
   -2.2642    2.3881   24.8084 O   0  0  0  0  0  0  0  0  0  0  0  0
   -1.0307    2.4946   28.0132 C   0  0  0  0  0  0  0  0  0  0  0  0
   -0.2791    1.7561   28.9353 C   0  0  0  0  0  0  0  0  0  0  0  0
    3.0526   -0.0077   28.9666 H   0  0  0  0  0  0  0  0  0  0  0  0
    3.6535    1.0761   30.2287 H   0  0  0  0  0  0  0  0  0  0  0  0
    2.4521    1.6410   29.0768 H   0  0  0  0  0  0  0  0  0  0  0  0
    2.1290   -0.2761   31.4313 H   0  0  0  0  0  0  0  0  0  0  0  0
    1.2967    1.2095   31.1763 H   0  0  0  0  0  0  0  0  0  0  0  0
   -0.2250   -0.6289   30.8407 H   0  0  0  0  0  0  0  0  0  0  0  0
    0.0361   -2.4399   29.2037 H   0  0  0  0  0  0  0  0  0  0  0  0
    1.5286   -1.7655   28.5915 H   0  0  0  0  0  0  0  0  0  0  0  0
    3.4713   -1.9379   29.8005 H   0  0  0  0  0  0  0  0  0  0  0  0
    5.6658   -3.1708   32.3744 H   0  0  0  0  0  0  0  0  0  0  0  0
    5.4504   -2.0287   31.1297 H   0  0  0  0  0  0  0  0  0  0  0  0
    7.1122   -3.6874   30.5292 H   0  0  0  0  0  0  0  0  0  0  0  0
    6.0213   -5.0209   30.7996 H   0  0  0  0  0  0  0  0  0  0  0  0
    6.5894   -4.5173   28.4222 H   0  0  0  0  0  0  0  0  0  0  0  0
    3.5884   -4.2262   28.4985 H   0  0  0  0  0  0  0  0  0  0  0  0
    4.3227   -5.6200   29.3191 H   0  0  0  0  0  0  0  0  0  0  0  0
    4.6117   -5.3441   27.6160 H   0  0  0  0  0  0  0  0  0  0  0  0
    5.0816   -3.5533   26.6649 H   0  0  0  0  0  0  0  0  0  0  0  0
    4.7773   -1.9463   25.0268 H   0  0  0  0  0  0  0  0  0  0  0  0
    4.1294   -0.9568   26.3747 H   0  0  0  0  0  0  0  0  0  0  0  0
    5.8603   -0.8743   25.9856 H   0  0  0  0  0  0  0  0  0  0  0  0
    4.8700   -4.6813   33.5562 H   0  0  0  0  0  0  0  0  0  0  0  0
    3.8179   -6.3653   34.9307 H   0  0  0  0  0  0  0  0  0  0  0  0
   -1.1391   -4.3868   32.3620 H   0  0  0  0  0  0  0  0  0  0  0  0
   -1.9773   -5.2644   33.4941 H   0  0  0  0  0  0  0  0  0  0  0  0
   -1.2939   -1.3583   28.0285 H   0  0  0  0  0  0  0  0  0  0  0  0
   -2.5366   -0.0810   26.4240 H   0  0  0  0  0  0  0  0  0  0  0  0
   -3.7569    2.3244   26.2393 H   0  0  0  0  0  0  0  0  0  0  0  0
   -2.6504    3.7073   26.3297 H   0  0  0  0  0  0  0  0  0  0  0  0
   -3.0581    2.5378   24.2528 H   0  0  0  0  0  0  0  0  0  0  0  0
   -0.9733    3.5815   28.0323 H   0  0  0  0  0  0  0  0  0  0  0  0
    0.3218    2.3328   29.6324 H   0  0  0  0  0  0  0  0  0  0  0  0
  1  2  1  0
  2  3  1  0
  3  4  1  0
  4  5  1  0
  5  6  1  0
  6  7  2  0
  7  8  1  0
  8  9  1  0
  9 10  1  0
 10 11  1  0
 10 12  1  0
 12 13  2  0
 12 14  1  0
 14 15  1  0
  7 16  1  0
 16 17  1  0
 17 18  2  0
 18 19  1  0
 19 20  2  0
 20 21  1  0
 21 22  2  0
 22 23  1  0
 22 24  1  0
 24 25  1  0
 25 26  1  0
 26 27  2  0
  3 28  1  0
 28 29  2  0
 29 30  1  0
 30 31  2  0
 31 32  1  0
 32 33  1  0
 31 34  1  0
 34 35  2  0
 26  5  1  0
 35 28  1  0
 25 16  2  0
 24 19  1  0
  1 36  1  0
  1 37  1  0
  1 38  1  0
  2 39  1  0
  2 40  1  0
  3 41  1  0
  4 42  1  0
  4 43  1  0
  6 44  1  0
  8 45  1  0
  8 46  1  0
  9 47  1  0
  9 48  1  0
 10 49  1  0
 11 50  1  0
 11 51  1  0
 11 52  1  0
 14 53  1  0
 15 54  1  0
 15 55  1  0
 15 56  1  0
 17 57  1  0
 18 58  1  0
 23 59  1  0
 23 60  1  0
 29 61  1  0
 30 62  1  0
 32 63  1  0
 32 64  1  0
 33 65  1  0
 34 66  1  0
 35 67  1  0
M  END
>  <Energy>  (305) 
51.644605075662241

>  <compound_id>  (305) 
3934

>  <target_id>  (305) 
1

>  <reference_id>  (305) 
141

>  <inspiration_ids>  (305) 
[141, 128]

>  <energy_score>  (305) 
-77.80808518243333

>  <distance_score>  (305) 
2.4660995847504164

>  <path>  (305) 
/opt/xchem-fragalysis-2/maxwin/BulkDock/SCRATCH/505735/C3934-P141/C3934-P141.minimised.mol

>  <scratch_subdir>  (305) 
/opt/xchem-fragalysis-2/maxwin/BulkDock/SCRATCH/505735/C3934-P141

>  <fragmenstein_runtime>  (305) 
18.369776248931885

>  <fragmenstein_outcome>  (305) 
too moved

>  <fragmenstein_mode>  (305) 
expansion

>  <fragmenstein_error>  (305) 


$$$$
C3934-P128
     RDKit          3D

 67 70  0  0  0  0  0  0  0  0999 V2000
    2.2300   -0.4726   27.9137 C   0  0  0  0  0  0  0  0  0  0  0  0
    1.4914   -1.4118   28.8754 C   0  0  0  0  0  0  0  0  0  0  0  0
    0.5947   -0.6758   29.9054 C   0  0  0  0  0  0  0  0  0  0  0  0
   -0.2169   -1.5059   30.9576 C   0  0  0  0  0  0  0  0  0  0  0  0
    0.4387   -2.6504   31.6003 N   0  0  0  0  0  0  0  0  0  0  0  0
    1.8002   -2.7791   31.4866 C   0  0  0  0  0  0  0  0  0  0  0  0
    2.3269   -3.9580   31.1300 C   0  0  0  0  0  0  0  0  0  0  0  0
    3.8337   -4.0945   31.0486 C   0  0  0  0  0  0  0  0  0  0  0  0
    4.5923   -4.6157   29.8050 C   0  0  0  0  0  0  0  0  0  0  0  0
    4.6480   -3.8437   28.4753 C   0  0  0  0  0  0  0  0  0  0  0  0
    3.3945   -4.0729   27.6351 C   0  0  0  0  0  0  0  0  0  0  0  0
    5.0432   -2.3596   28.6092 C   0  0  0  0  0  0  0  0  0  0  0  0
    4.9549   -1.7651   29.6089 O   0  0  0  0  0  0  0  0  0  0  0  0
    5.4980   -1.8946   27.1997 N   0  0  0  0  0  0  0  0  0  0  0  0
    6.0234   -0.6347   26.7596 C   0  0  0  0  0  0  0  0  0  0  0  0
    1.3835   -5.0760   31.0400 C   0  0  0  0  0  0  0  0  0  0  0  0
    1.4358   -6.1716   30.0878 C   0  0  0  0  0  0  0  0  0  0  0  0
    0.5962   -7.2254   30.1387 C   0  0  0  0  0  0  0  0  0  0  0  0
   -0.3586   -7.3189   31.1582 C   0  0  0  0  0  0  0  0  0  0  0  0
   -1.2209   -8.2513   31.4759 N   0  0  0  0  0  0  0  0  0  0  0  0
   -1.7161   -7.9160   32.7076 N   0  0  0  0  0  0  0  0  0  0  0  0
   -1.2121   -6.7525   33.0594 C   0  0  0  0  0  0  0  0  0  0  0  0
   -1.2908   -6.1651   34.2728 N   0  0  0  0  0  0  0  0  0  0  0  0
   -0.4413   -6.2557   32.0269 N   0  0  0  0  0  0  0  0  0  0  0  0
    0.2993   -5.0824   31.8594 C   0  0  0  0  0  0  0  0  0  0  0  0
   -0.3557   -3.7424   31.9796 C   0  0  0  0  0  0  0  0  0  0  0  0
   -1.5654   -3.6815   32.1993 O   0  0  0  0  0  0  0  0  0  0  0  0
   -0.3452    0.1954   29.0915 C   0  0  0  0  0  0  0  0  0  0  0  0
   -1.1972   -0.3733   28.1360 C   0  0  0  0  0  0  0  0  0  0  0  0
   -1.8454    0.4363   27.2100 C   0  0  0  0  0  0  0  0  0  0  0  0
   -1.7302    1.8252   27.2632 C   0  0  0  0  0  0  0  0  0  0  0  0
   -2.5395    2.6704   26.3227 C   0  0  0  0  0  0  0  0  0  0  0  0
   -1.8885    3.9087   26.0714 O   0  0  0  0  0  0  0  0  0  0  0  0
   -0.9165    2.3906   28.2485 C   0  0  0  0  0  0  0  0  0  0  0  0
   -0.2136    1.5848   29.1426 C   0  0  0  0  0  0  0  0  0  0  0  0
    1.5545    0.1069   27.2821 H   0  0  0  0  0  0  0  0  0  0  0  0
    2.8643   -1.0514   27.2393 H   0  0  0  0  0  0  0  0  0  0  0  0
    2.8687    0.2242   28.4659 H   0  0  0  0  0  0  0  0  0  0  0  0
    0.9080   -2.1406   28.3023 H   0  0  0  0  0  0  0  0  0  0  0  0
    2.2842   -1.9616   29.3646 H   0  0  0  0  0  0  0  0  0  0  0  0
    1.2639   -0.0243   30.4859 H   0  0  0  0  0  0  0  0  0  0  0  0
   -0.5528   -0.8393   31.7630 H   0  0  0  0  0  0  0  0  0  0  0  0
   -1.1335   -1.8858   30.4873 H   0  0  0  0  0  0  0  0  0  0  0  0
    2.3991   -1.8747   31.5723 H   0  0  0  0  0  0  0  0  0  0  0  0
    4.1067   -4.7490   31.8875 H   0  0  0  0  0  0  0  0  0  0  0  0
    4.2948   -3.1457   31.3470 H   0  0  0  0  0  0  0  0  0  0  0  0
    5.6363   -4.7282   30.1339 H   0  0  0  0  0  0  0  0  0  0  0  0
    4.2636   -5.6300   29.5652 H   0  0  0  0  0  0  0  0  0  0  0  0
    5.4743   -4.3083   27.9150 H   0  0  0  0  0  0  0  0  0  0  0  0
    2.4835   -3.8627   28.1945 H   0  0  0  0  0  0  0  0  0  0  0  0
    3.3404   -5.1188   27.3125 H   0  0  0  0  0  0  0  0  0  0  0  0
    3.3816   -3.4565   26.7338 H   0  0  0  0  0  0  0  0  0  0  0  0
    5.3761   -2.6513   26.5377 H   0  0  0  0  0  0  0  0  0  0  0  0
    7.0313   -0.7955   26.3717 H   0  0  0  0  0  0  0  0  0  0  0  0
    6.0497    0.0634   27.5989 H   0  0  0  0  0  0  0  0  0  0  0  0
    5.3786   -0.2485   25.9673 H   0  0  0  0  0  0  0  0  0  0  0  0
    2.1703   -6.1211   29.2939 H   0  0  0  0  0  0  0  0  0  0  0  0
    0.6949   -8.0884   29.4906 H   0  0  0  0  0  0  0  0  0  0  0  0
   -1.8045   -6.7253   34.9484 H   0  0  0  0  0  0  0  0  0  0  0  0
   -1.6961   -5.2205   34.2686 H   0  0  0  0  0  0  0  0  0  0  0  0
   -1.3036   -1.4517   28.0378 H   0  0  0  0  0  0  0  0  0  0  0  0
   -2.4360   -0.0341   26.4302 H   0  0  0  0  0  0  0  0  0  0  0  0
   -2.6588    2.1688   25.3587 H   0  0  0  0  0  0  0  0  0  0  0  0
   -3.5295    2.8522   26.7495 H   0  0  0  0  0  0  0  0  0  0  0  0
   -2.5850    4.5953   26.0919 H   0  0  0  0  0  0  0  0  0  0  0  0
   -0.8148    3.4726   28.3138 H   0  0  0  0  0  0  0  0  0  0  0  0
    0.4612    2.0583   29.8514 H   0  0  0  0  0  0  0  0  0  0  0  0
  1  2  1  0
  2  3  1  0
  3  4  1  0
  4  5  1  0
  5  6  1  0
  6  7  2  0
  7  8  1  0
  8  9  1  0
  9 10  1  0
 10 11  1  0
 10 12  1  0
 12 13  2  0
 12 14  1  0
 14 15  1  0
  7 16  1  0
 16 17  1  0
 17 18  2  0
 18 19  1  0
 19 20  2  0
 20 21  1  0
 21 22  2  0
 22 23  1  0
 22 24  1  0
 24 25  1  0
 25 26  1  0
 26 27  2  0
  3 28  1  0
 28 29  2  0
 29 30  1  0
 30 31  2  0
 31 32  1  0
 32 33  1  0
 31 34  1  0
 34 35  2  0
 26  5  1  0
 35 28  1  0
 25 16  2  0
 24 19  1  0
  1 36  1  0
  1 37  1  0
  1 38  1  0
  2 39  1  0
  2 40  1  0
  3 41  1  0
  4 42  1  0
  4 43  1  0
  6 44  1  0
  8 45  1  0
  8 46  1  0
  9 47  1  0
  9 48  1  0
 10 49  1  0
 11 50  1  0
 11 51  1  0
 11 52  1  0
 14 53  1  0
 15 54  1  0
 15 55  1  0
 15 56  1  0
 17 57  1  0
 18 58  1  0
 23 59  1  0
 23 60  1  0
 29 61  1  0
 30 62  1  0
 32 63  1  0
 32 64  1  0
 33 65  1  0
 34 66  1  0
 35 67  1  0
M  END
>  <Energy>  (306) 
108.06637774461903

>  <compound_id>  (306) 
3934

>  <target_id>  (306) 
1

>  <reference_id>  (306) 
128

>  <inspiration_ids>  (306) 
[141, 128]

>  <energy_score>  (306) 
-18.372004991522147

>  <distance_score>  (306) 
1.1727490014208182

>  <path>  (306) 
/opt/xchem-fragalysis-2/maxwin/BulkDock/SCRATCH/505735/C3934-P128/C3934-P128.minimised.mol

>  <scratch_subdir>  (306) 
/opt/xchem-fragalysis-2/maxwin/BulkDock/SCRATCH/505735/C3934-P128

>  <fragmenstein_runtime>  (306) 
9.885503768920898

>  <fragmenstein_outcome>  (306) 
too moved

>  <fragmenstein_mode>  (306) 
expansion

>  <fragmenstein_error>  (306) 


$$$$
C4046-P141
     RDKit          3D

 65 68  0  0  0  0  0  0  0  0999 V2000
   -0.2331   -1.1632   34.1899 O   0  0  0  0  0  0  0  0  0  0  0  0
   -0.6585   -1.9767   33.4228 C   0  0  0  0  0  0  0  0  0  0  0  0
   -0.1567   -3.4403   33.4804 C   0  0  0  0  0  0  0  0  0  0  0  0
   -0.1058   -3.9833   32.0986 N   0  0  0  0  0  0  0  0  0  0  0  0
    0.9937   -4.9651   31.9527 C   0  0  0  0  0  0  0  0  0  0  0  0
    1.8863   -4.6011   30.6828 C   0  0  0  0  0  0  0  0  0  0  0  0
    2.6342   -5.4105   30.1983 O   0  0  0  0  0  0  0  0  0  0  0  0
    1.5396   -3.2664   30.2498 N   0  0  0  0  0  0  0  0  0  0  0  0
    1.9118   -2.5137   29.0069 C   0  0  0  0  0  0  0  0  0  0  0  0
    3.2934   -2.7375   28.3936 C   0  0  0  0  0  0  0  0  0  0  0  0
    4.2889   -1.9187   29.1745 C   0  0  0  0  0  0  0  0  0  0  0  0
    4.0304   -2.1530   30.6563 C   0  0  0  0  0  0  0  0  0  0  0  0
    4.8666   -3.2146   31.3566 C   0  0  0  0  0  0  0  0  0  0  0  0
    5.7195   -4.0943   30.6779 C   0  0  0  0  0  0  0  0  0  0  0  0
    6.5704   -4.9568   31.3780 C   0  0  0  0  0  0  0  0  0  0  0  0
    6.5656   -4.9894   32.7766 C   0  0  0  0  0  0  0  0  0  0  0  0
    7.4949   -5.9132   33.5161 C   0  0  0  0  0  0  0  0  0  0  0  0
    8.8253   -5.4168   33.4786 O   0  0  0  0  0  0  0  0  0  0  0  0
    5.7110   -4.1258   33.4647 C   0  0  0  0  0  0  0  0  0  0  0  0
    4.8794   -3.2474   32.7638 C   0  0  0  0  0  0  0  0  0  0  0  0
    2.4906   -2.2313   30.8952 C   0  0  0  0  0  0  0  0  0  0  0  0
    0.3839   -6.2599   31.8188 N   0  0  0  0  0  0  0  0  0  0  0  0
   -0.4226   -6.6667   30.8240 C   0  0  0  0  0  0  0  0  0  0  0  0
   -1.1575   -7.7033   31.0788 N   0  0  0  0  0  0  0  0  0  0  0  0
   -0.8405   -7.9906   32.3807 N   0  0  0  0  0  0  0  0  0  0  0  0
    0.0971   -7.0831   32.8677 C   0  0  0  0  0  0  0  0  0  0  0  0
    0.5509   -7.0370   33.9983 O   0  0  0  0  0  0  0  0  0  0  0  0
   -1.5505   -1.8379   32.3126 N   0  0  0  0  0  0  0  0  0  0  0  0
   -2.1330   -0.6789   31.7197 C   0  0  0  0  0  0  0  0  0  0  0  0
   -1.2728   -0.1395   30.6085 C   0  0  0  0  0  0  0  0  0  0  0  0
   -1.5426   -0.4501   29.2698 C   0  0  0  0  0  0  0  0  0  0  0  0
   -0.8224    0.1573   28.2407 C   0  0  0  0  0  0  0  0  0  0  0  0
    0.2003    1.0546   28.5387 C   0  0  0  0  0  0  0  0  0  0  0  0
    0.5242    1.3209   29.8677 C   0  0  0  0  0  0  0  0  0  0  0  0
   -0.2005    0.7175   30.8980 C   0  0  0  0  0  0  0  0  0  0  0  0
    0.8377   -3.4031   33.9398 H   0  0  0  0  0  0  0  0  0  0  0  0
   -0.8271   -4.0327   34.1070 H   0  0  0  0  0  0  0  0  0  0  0  0
    0.1796   -3.2094   31.4796 H   0  0  0  0  0  0  0  0  0  0  0  0
    1.6805   -4.9711   32.8077 H   0  0  0  0  0  0  0  0  0  0  0  0
    1.5730   -1.4690   28.9806 H   0  0  0  0  0  0  0  0  0  0  0  0
    1.2305   -2.9862   28.2841 H   0  0  0  0  0  0  0  0  0  0  0  0
    3.3012   -2.4073   27.3505 H   0  0  0  0  0  0  0  0  0  0  0  0
    3.5610   -3.7986   28.3954 H   0  0  0  0  0  0  0  0  0  0  0  0
    4.1043   -0.8582   28.9519 H   0  0  0  0  0  0  0  0  0  0  0  0
    5.3192   -2.1106   28.8614 H   0  0  0  0  0  0  0  0  0  0  0  0
    4.3604   -1.2223   31.1455 H   0  0  0  0  0  0  0  0  0  0  0  0
    5.7567   -4.1265   29.5926 H   0  0  0  0  0  0  0  0  0  0  0  0
    7.2361   -5.6149   30.8213 H   0  0  0  0  0  0  0  0  0  0  0  0
    7.1956   -6.0166   34.5643 H   0  0  0  0  0  0  0  0  0  0  0  0
    7.4783   -6.9133   33.0702 H   0  0  0  0  0  0  0  0  0  0  0  0
    8.7844   -4.4755   33.2375 H   0  0  0  0  0  0  0  0  0  0  0  0
    5.7008   -4.1126   34.5532 H   0  0  0  0  0  0  0  0  0  0  0  0
    4.2649   -2.5570   33.3398 H   0  0  0  0  0  0  0  0  0  0  0  0
    2.3758   -2.4494   31.9673 H   0  0  0  0  0  0  0  0  0  0  0  0
    2.0444   -1.2233   30.8485 H   0  0  0  0  0  0  0  0  0  0  0  0
   -0.4023   -6.1108   29.8799 H   0  0  0  0  0  0  0  0  0  0  0  0
   -1.3095   -8.7070   32.9258 H   0  0  0  0  0  0  0  0  0  0  0  0
   -1.6256   -2.7322   31.8350 H   0  0  0  0  0  0  0  0  0  0  0  0
   -2.2611    0.0832   32.4960 H   0  0  0  0  0  0  0  0  0  0  0  0
   -3.1242   -0.9511   31.3536 H   0  0  0  0  0  0  0  0  0  0  0  0
   -2.3347   -1.1453   29.0036 H   0  0  0  0  0  0  0  0  0  0  0  0
   -1.0771   -0.0687   27.2073 H   0  0  0  0  0  0  0  0  0  0  0  0
    0.7433    1.5445   27.7355 H   0  0  0  0  0  0  0  0  0  0  0  0
    1.3228    2.0201   30.1023 H   0  0  0  0  0  0  0  0  0  0  0  0
    0.0456    0.9536   31.9324 H   0  0  0  0  0  0  0  0  0  0  0  0
  1  2  2  0
  2  3  1  0
  3  4  1  0
  4  5  1  0
  5  6  1  0
  6  7  2  0
  6  8  1  0
  8  9  1  0
  9 10  1  0
 10 11  1  0
 11 12  1  0
 12 13  1  0
 13 14  2  0
 14 15  1  0
 15 16  2  0
 16 17  1  0
 17 18  1  0
 16 19  1  0
 19 20  2  0
 12 21  1  0
  5 22  1  0
 22 23  1  0
 23 24  2  0
 24 25  1  0
 25 26  1  0
 26 27  2  0
  2 28  1  0
 28 29  1  0
 29 30  1  0
 30 31  2  0
 31 32  1  0
 32 33  2  0
 33 34  1  0
 34 35  2  0
 21  8  1  0
 26 22  1  0
 35 30  1  0
 20 13  1  0
  3 36  1  0
  3 37  1  0
  4 38  1  0
  5 39  1  0
  9 40  1  0
  9 41  1  0
 10 42  1  0
 10 43  1  0
 11 44  1  0
 11 45  1  0
 12 46  1  0
 14 47  1  0
 15 48  1  0
 17 49  1  0
 17 50  1  0
 18 51  1  0
 19 52  1  0
 20 53  1  0
 21 54  1  0
 21 55  1  0
 23 56  1  0
 25 57  1  0
 28 58  1  0
 29 59  1  0
 29 60  1  0
 31 61  1  0
 32 62  1  0
 33 63  1  0
 34 64  1  0
 35 65  1  0
M  END
>  <Energy>  (307) 
145.67967334038937

>  <compound_id>  (307) 
4046

>  <target_id>  (307) 
1

>  <reference_id>  (307) 
141

>  <inspiration_ids>  (307) 
[141, 130]

>  <energy_score>  (307) 
23.892752368964466

>  <distance_score>  (307) 
2.207112055388274

>  <path>  (307) 
/opt/xchem-fragalysis-2/maxwin/BulkDock/SCRATCH/505735/C4046-P141/C4046-P141.minimised.mol

>  <scratch_subdir>  (307) 
/opt/xchem-fragalysis-2/maxwin/BulkDock/SCRATCH/505735/C4046-P141

>  <fragmenstein_runtime>  (307) 
14.686264038085938

>  <fragmenstein_outcome>  (307) 
too moved

>  <fragmenstein_mode>  (307) 
expansion

>  <fragmenstein_error>  (307) 


$$$$
C4046-P130
     RDKit          3D

 65 68  0  0  0  0  0  0  0  0999 V2000
    0.7524   -1.8305   34.2031 O   0  0  0  0  0  0  0  0  0  0  0  0
   -0.1679   -2.2975   33.5929 C   0  0  0  0  0  0  0  0  0  0  0  0
   -0.4692   -3.8147   33.7474 C   0  0  0  0  0  0  0  0  0  0  0  0
    0.7636   -4.6157   33.6078 N   0  0  0  0  0  0  0  0  0  0  0  0
    0.9928   -5.1666   32.2606 C   0  0  0  0  0  0  0  0  0  0  0  0
    1.1660   -3.9471   31.2674 C   0  0  0  0  0  0  0  0  0  0  0  0
    0.3484   -3.7127   30.4150 O   0  0  0  0  0  0  0  0  0  0  0  0
    2.3470   -3.2161   31.6614 N   0  0  0  0  0  0  0  0  0  0  0  0
    2.8667   -1.8822   31.2144 C   0  0  0  0  0  0  0  0  0  0  0  0
    2.4421   -1.4136   29.8222 C   0  0  0  0  0  0  0  0  0  0  0  0
    2.8122   -2.4359   28.7800 C   0  0  0  0  0  0  0  0  0  0  0  0
    3.8883   -3.3239   29.3810 C   0  0  0  0  0  0  0  0  0  0  0  0
    4.2458   -4.4967   28.4873 C   0  0  0  0  0  0  0  0  0  0  0  0
    3.2636   -5.3337   27.9469 C   0  0  0  0  0  0  0  0  0  0  0  0
    3.6049   -6.3152   27.0140 C   0  0  0  0  0  0  0  0  0  0  0  0
    4.9319   -6.5063   26.6150 C   0  0  0  0  0  0  0  0  0  0  0  0
    5.3113   -7.4780   25.5218 C   0  0  0  0  0  0  0  0  0  0  0  0
    4.2204   -8.3304   25.1924 O   0  0  0  0  0  0  0  0  0  0  0  0
    5.9216   -5.7127   27.2045 C   0  0  0  0  0  0  0  0  0  0  0  0
    5.5840   -4.7212   28.1307 C   0  0  0  0  0  0  0  0  0  0  0  0
    3.5686   -3.7122   30.8644 C   0  0  0  0  0  0  0  0  0  0  0  0
   -0.0622   -6.1048   31.9101 N   0  0  0  0  0  0  0  0  0  0  0  0
   -0.2744   -6.5967   30.6716 C   0  0  0  0  0  0  0  0  0  0  0  0
   -0.9731   -7.6869   30.5967 N   0  0  0  0  0  0  0  0  0  0  0  0
   -1.2118   -7.9874   31.9058 N   0  0  0  0  0  0  0  0  0  0  0  0
   -0.4993   -7.1181   32.7285 C   0  0  0  0  0  0  0  0  0  0  0  0
   -0.2454   -7.3373   33.8999 O   0  0  0  0  0  0  0  0  0  0  0  0
   -1.1140   -1.6818   32.7095 N   0  0  0  0  0  0  0  0  0  0  0  0
   -1.3133   -0.3059   32.3547 C   0  0  0  0  0  0  0  0  0  0  0  0
   -0.9306    0.0347   30.9391 C   0  0  0  0  0  0  0  0  0  0  0  0
   -1.4560   -0.6633   29.8425 C   0  0  0  0  0  0  0  0  0  0  0  0
   -1.1814   -0.2531   28.5347 C   0  0  0  0  0  0  0  0  0  0  0  0
   -0.3806    0.8631   28.3076 C   0  0  0  0  0  0  0  0  0  0  0  0
    0.1699    1.5531   29.3839 C   0  0  0  0  0  0  0  0  0  0  0  0
   -0.0966    1.1366   30.6904 C   0  0  0  0  0  0  0  0  0  0  0  0
   -0.8453   -3.9443   34.7686 H   0  0  0  0  0  0  0  0  0  0  0  0
   -1.2596   -4.1526   33.0727 H   0  0  0  0  0  0  0  0  0  0  0  0
    1.5481   -4.0001   33.8499 H   0  0  0  0  0  0  0  0  0  0  0  0
    1.9258   -5.7417   32.2694 H   0  0  0  0  0  0  0  0  0  0  0  0
    3.9134   -1.6515   31.4811 H   0  0  0  0  0  0  0  0  0  0  0  0
    2.3285   -1.2010   31.8917 H   0  0  0  0  0  0  0  0  0  0  0  0
    2.9198   -0.4513   29.6056 H   0  0  0  0  0  0  0  0  0  0  0  0
    1.3657   -1.2511   29.7868 H   0  0  0  0  0  0  0  0  0  0  0  0
    3.1604   -1.9488   27.8615 H   0  0  0  0  0  0  0  0  0  0  0  0
    1.9195   -3.0039   28.4996 H   0  0  0  0  0  0  0  0  0  0  0  0
    4.7906   -2.6937   29.4341 H   0  0  0  0  0  0  0  0  0  0  0  0
    2.2161   -5.1944   28.2021 H   0  0  0  0  0  0  0  0  0  0  0  0
    2.8245   -6.9165   26.5598 H   0  0  0  0  0  0  0  0  0  0  0  0
    5.6075   -6.9223   24.6277 H   0  0  0  0  0  0  0  0  0  0  0  0
    6.1462   -8.1048   25.8512 H   0  0  0  0  0  0  0  0  0  0  0  0
    4.5168   -8.8044   24.3810 H   0  0  0  0  0  0  0  0  0  0  0  0
    6.9622   -5.8413   26.9132 H   0  0  0  0  0  0  0  0  0  0  0  0
    6.3776   -4.0968   28.5366 H   0  0  0  0  0  0  0  0  0  0  0  0
    3.4344   -4.8025   30.8630 H   0  0  0  0  0  0  0  0  0  0  0  0
    4.4682   -3.6030   31.4960 H   0  0  0  0  0  0  0  0  0  0  0  0
    0.1306   -6.0570   29.8092 H   0  0  0  0  0  0  0  0  0  0  0  0
   -1.5416   -8.8959   32.2123 H   0  0  0  0  0  0  0  0  0  0  0  0
   -1.7034   -2.3977   32.3073 H   0  0  0  0  0  0  0  0  0  0  0  0
   -0.7421    0.3023   33.0649 H   0  0  0  0  0  0  0  0  0  0  0  0
   -2.3747   -0.0782   32.5020 H   0  0  0  0  0  0  0  0  0  0  0  0
   -2.0837   -1.5368   29.9898 H   0  0  0  0  0  0  0  0  0  0  0  0
   -1.5975   -0.8058   27.6928 H   0  0  0  0  0  0  0  0  0  0  0  0
   -0.1877    1.1900   27.2907 H   0  0  0  0  0  0  0  0  0  0  0  0
    0.7933    2.4258   29.2074 H   0  0  0  0  0  0  0  0  0  0  0  0
    0.3320    1.7011   31.5162 H   0  0  0  0  0  0  0  0  0  0  0  0
  1  2  2  0
  2  3  1  0
  3  4  1  0
  4  5  1  0
  5  6  1  0
  6  7  2  0
  6  8  1  0
  8  9  1  0
  9 10  1  0
 10 11  1  0
 11 12  1  0
 12 13  1  0
 13 14  2  0
 14 15  1  0
 15 16  2  0
 16 17  1  0
 17 18  1  0
 16 19  1  0
 19 20  2  0
 12 21  1  0
  5 22  1  0
 22 23  1  0
 23 24  2  0
 24 25  1  0
 25 26  1  0
 26 27  2  0
  2 28  1  0
 28 29  1  0
 29 30  1  0
 30 31  2  0
 31 32  1  0
 32 33  2  0
 33 34  1  0
 34 35  2  0
 21  8  1  0
 26 22  1  0
 35 30  1  0
 20 13  1  0
  3 36  1  0
  3 37  1  0
  4 38  1  0
  5 39  1  0
  9 40  1  0
  9 41  1  0
 10 42  1  0
 10 43  1  0
 11 44  1  0
 11 45  1  0
 12 46  1  0
 14 47  1  0
 15 48  1  0
 17 49  1  0
 17 50  1  0
 18 51  1  0
 19 52  1  0
 20 53  1  0
 21 54  1  0
 21 55  1  0
 23 56  1  0
 25 57  1  0
 28 58  1  0
 29 59  1  0
 29 60  1  0
 31 61  1  0
 32 62  1  0
 33 63  1  0
 34 64  1  0
 35 65  1  0
M  END
>  <Energy>  (308) 
162.48639631852762

>  <compound_id>  (308) 
4046

>  <target_id>  (308) 
1

>  <reference_id>  (308) 
130

>  <inspiration_ids>  (308) 
[141, 130]

>  <energy_score>  (308) 
40.69947534710133

>  <distance_score>  (308) 
2.0974212427690384

>  <path>  (308) 
/opt/xchem-fragalysis-2/maxwin/BulkDock/SCRATCH/505735/C4046-P130/C4046-P130.minimised.mol

>  <scratch_subdir>  (308) 
/opt/xchem-fragalysis-2/maxwin/BulkDock/SCRATCH/505735/C4046-P130

>  <fragmenstein_runtime>  (308) 
25.450058460235596

>  <fragmenstein_outcome>  (308) 
too moved

>  <fragmenstein_mode>  (308) 
expansion

>  <fragmenstein_error>  (308) 


$$$$
C4047-P141
     RDKit          3D

 67 72  0  0  0  0  0  0  0  0999 V2000
   -1.7026   -3.4947   30.9311 O   0  0  0  0  0  0  0  0  0  0  0  0
   -0.6997   -3.4154   31.5885 C   0  0  0  0  0  0  0  0  0  0  0  0
   -0.4468   -4.5206   32.5634 C   0  0  0  0  0  0  0  0  0  0  0  0
   -0.5302   -5.8785   32.0039 C   0  0  0  0  0  0  0  0  0  0  0  0
   -0.4008   -6.9745   32.7649 C   0  0  0  0  0  0  0  0  0  0  0  0
   -0.1490   -6.8183   34.1466 C   0  0  0  0  0  0  0  0  0  0  0  0
    0.1235   -7.6897   35.0880 N   0  0  0  0  0  0  0  0  0  0  0  0
    0.2738   -7.0026   36.2638 N   0  0  0  0  0  0  0  0  0  0  0  0
    0.0990   -5.7257   36.0071 C   0  0  0  0  0  0  0  0  0  0  0  0
   -0.1088   -5.5310   34.6698 N   0  0  0  0  0  0  0  0  0  0  0  0
   -0.2330   -4.3739   33.8904 C   0  0  0  0  0  0  0  0  0  0  0  0
   -0.0248   -3.0437   34.3633 N   0  0  0  0  0  0  0  0  0  0  0  0
    1.2726   -2.5950   34.8917 C   0  0  0  0  0  0  0  0  0  0  0  0
    1.0597   -1.1017   35.1424 C   0  0  0  0  0  0  0  0  0  0  0  0
   -0.2486   -1.0085   35.9370 C   0  0  0  0  0  0  0  0  0  0  0  0
   -0.9685    0.3163   36.0323 C   0  0  0  0  0  0  0  0  0  0  0  0
   -0.6112    1.4399   35.2718 C   0  0  0  0  0  0  0  0  0  0  0  0
   -1.2869    2.6542   35.4263 C   0  0  0  0  0  0  0  0  0  0  0  0
   -2.3320    2.7651   36.3390 C   0  0  0  0  0  0  0  0  0  0  0  0
   -2.7023    1.6619   37.1016 C   0  0  0  0  0  0  0  0  0  0  0  0
   -2.0250    0.4500   36.9526 C   0  0  0  0  0  0  0  0  0  0  0  0
   -1.3118   -2.2795   35.2023 S   0  0  0  0  0  0  0  0  0  0  0  0
   -2.2157   -1.7137   34.2275 O   0  0  0  0  0  0  0  0  0  0  0  0
   -1.7397   -3.1456   36.2804 O   0  0  0  0  0  0  0  0  0  0  0  0
    0.3646   -2.4798   31.5395 N   0  0  0  0  0  0  0  0  0  0  0  0
    1.4644   -2.9843   30.5846 C   0  0  0  0  0  0  0  0  0  0  0  0
    2.6239   -2.1992   29.9303 C   0  0  0  0  0  0  0  0  0  0  0  0
    2.0218   -1.3554   28.8137 C   0  0  0  0  0  0  0  0  0  0  0  0
    0.5470   -1.1833   29.1766 C   0  0  0  0  0  0  0  0  0  0  0  0
   -0.1063    0.0403   28.5846 C   0  0  0  0  0  0  0  0  0  0  0  0
   -1.2595   -0.1344   27.8056 C   0  0  0  0  0  0  0  0  0  0  0  0
   -1.9316    0.9579   27.2644 C   0  0  0  0  0  0  0  0  0  0  0  0
   -1.4851    2.2550   27.5122 C   0  0  0  0  0  0  0  0  0  0  0  0
   -2.2676    3.4279   27.0002 C   0  0  0  0  0  0  0  0  0  0  0  0
   -1.5478    4.0698   25.9566 O   0  0  0  0  0  0  0  0  0  0  0  0
   -0.3223    2.4368   28.2719 C   0  0  0  0  0  0  0  0  0  0  0  0
    0.3610    1.3400   28.8074 C   0  0  0  0  0  0  0  0  0  0  0  0
    0.5276   -1.2223   30.7299 C   0  0  0  0  0  0  0  0  0  0  0  0
   -0.7150   -5.9746   30.9381 H   0  0  0  0  0  0  0  0  0  0  0  0
   -0.4910   -7.9733   32.3544 H   0  0  0  0  0  0  0  0  0  0  0  0
    0.1156   -4.9294   36.7351 H   0  0  0  0  0  0  0  0  0  0  0  0
    1.5332   -3.1228   35.8141 H   0  0  0  0  0  0  0  0  0  0  0  0
    2.0672   -2.7477   34.1551 H   0  0  0  0  0  0  0  0  0  0  0  0
    0.9752   -0.5983   34.1719 H   0  0  0  0  0  0  0  0  0  0  0  0
    1.8988   -0.6527   35.6829 H   0  0  0  0  0  0  0  0  0  0  0  0
   -0.0308   -1.3543   36.9575 H   0  0  0  0  0  0  0  0  0  0  0  0
    0.1981    1.4033   34.5478 H   0  0  0  0  0  0  0  0  0  0  0  0
   -0.9910    3.5172   34.8345 H   0  0  0  0  0  0  0  0  0  0  0  0
   -2.8526    3.7110   36.4607 H   0  0  0  0  0  0  0  0  0  0  0  0
   -3.5153    1.7427   37.8188 H   0  0  0  0  0  0  0  0  0  0  0  0
   -2.3331   -0.3957   37.5679 H   0  0  0  0  0  0  0  0  0  0  0  0
    0.9933   -3.6384   29.8297 H   0  0  0  0  0  0  0  0  0  0  0  0
    1.9799   -3.7157   31.2284 H   0  0  0  0  0  0  0  0  0  0  0  0
    3.1511   -1.5832   30.6685 H   0  0  0  0  0  0  0  0  0  0  0  0
    3.3624   -2.8915   29.5098 H   0  0  0  0  0  0  0  0  0  0  0  0
    2.1158   -1.8645   27.8500 H   0  0  0  0  0  0  0  0  0  0  0  0
    2.5689   -0.4105   28.7295 H   0  0  0  0  0  0  0  0  0  0  0  0
   -0.0093   -2.0528   28.7983 H   0  0  0  0  0  0  0  0  0  0  0  0
   -1.6543   -1.1307   27.6022 H   0  0  0  0  0  0  0  0  0  0  0  0
   -2.8178    0.7839   26.6589 H   0  0  0  0  0  0  0  0  0  0  0  0
   -2.4327    4.1444   27.8109 H   0  0  0  0  0  0  0  0  0  0  0  0
   -3.2434    3.1170   26.6120 H   0  0  0  0  0  0  0  0  0  0  0  0
   -2.1368    4.7862   25.6550 H   0  0  0  0  0  0  0  0  0  0  0  0
    0.0388    3.4454   28.4632 H   0  0  0  0  0  0  0  0  0  0  0  0
    1.2478    1.5198   29.4078 H   0  0  0  0  0  0  0  0  0  0  0  0
    1.2903   -0.5830   31.2051 H   0  0  0  0  0  0  0  0  0  0  0  0
   -0.4028   -0.7004   31.0087 H   0  0  0  0  0  0  0  0  0  0  0  0
  1  2  2  0
  2  3  1  0
  3  4  1  0
  4  5  2  0
  5  6  1  0
  6  7  2  0
  7  8  1  0
  8  9  2  0
  9 10  1  0
 10 11  1  0
 11 12  1  0
 12 13  1  0
 13 14  1  0
 14 15  1  0
 15 16  1  0
 16 17  2  0
 17 18  1  0
 18 19  2  0
 19 20  1  0
 20 21  2  0
 15 22  1  0
 22 23  2  0
 22 24  2  0
  2 25  1  0
 25 26  1  0
 26 27  1  0
 27 28  1  0
 28 29  1  0
 29 30  1  0
 30 31  2  0
 31 32  1  0
 32 33  2  0
 33 34  1  0
 34 35  1  0
 33 36  1  0
 36 37  2  0
 29 38  1  0
 11  3  2  0
 22 12  1  0
 38 25  1  0
 10  6  1  0
 21 16  1  0
 37 30  1  0
  4 39  1  0
  5 40  1  0
  9 41  1  0
 13 42  1  0
 13 43  1  0
 14 44  1  0
 14 45  1  0
 15 46  1  0
 17 47  1  0
 18 48  1  0
 19 49  1  0
 20 50  1  0
 21 51  1  0
 26 52  1  0
 26 53  1  0
 27 54  1  0
 27 55  1  0
 28 56  1  0
 28 57  1  0
 29 58  1  0
 31 59  1  0
 32 60  1  0
 34 61  1  0
 34 62  1  0
 35 63  1  0
 36 64  1  0
 37 65  1  0
 38 66  1  0
 38 67  1  0
M  END
>  <Energy>  (309) 
185.88364545963674

>  <compound_id>  (309) 
4047

>  <target_id>  (309) 
1

>  <reference_id>  (309) 
141

>  <inspiration_ids>  (309) 
[141, 132]

>  <energy_score>  (309) 
20.651319598673354

>  <distance_score>  (309) 
2.2334132912096063

>  <path>  (309) 
/opt/xchem-fragalysis-2/maxwin/BulkDock/SCRATCH/505735/C4047-P141/C4047-P141.minimised.mol

>  <scratch_subdir>  (309) 
/opt/xchem-fragalysis-2/maxwin/BulkDock/SCRATCH/505735/C4047-P141

>  <fragmenstein_runtime>  (309) 
12.781238317489624

>  <fragmenstein_outcome>  (309) 
too moved

>  <fragmenstein_mode>  (309) 
expansion

>  <fragmenstein_error>  (309) 


$$$$
C4047-P132
     RDKit          3D

 67 72  0  0  0  0  0  0  0  0999 V2000
    0.3146   -3.4450   28.9935 O   0  0  0  0  0  0  0  0  0  0  0  0
    0.6002   -3.2006   30.1360 C   0  0  0  0  0  0  0  0  0  0  0  0
    0.4535   -4.3399   31.1200 C   0  0  0  0  0  0  0  0  0  0  0  0
    0.6371   -5.6756   30.5251 C   0  0  0  0  0  0  0  0  0  0  0  0
    0.3278   -6.8098   31.1666 C   0  0  0  0  0  0  0  0  0  0  0  0
   -0.1215   -6.7367   32.4994 C   0  0  0  0  0  0  0  0  0  0  0  0
   -0.4241   -7.6718   33.3664 N   0  0  0  0  0  0  0  0  0  0  0  0
   -0.8089   -7.0562   34.5269 N   0  0  0  0  0  0  0  0  0  0  0  0
   -0.7377   -5.7601   34.3312 C   0  0  0  0  0  0  0  0  0  0  0  0
   -0.2677   -5.4814   33.0755 N   0  0  0  0  0  0  0  0  0  0  0  0
    0.0098   -4.2736   32.4036 C   0  0  0  0  0  0  0  0  0  0  0  0
   -0.1784   -2.9699   32.9870 N   0  0  0  0  0  0  0  0  0  0  0  0
    0.4096   -2.5881   34.2922 C   0  0  0  0  0  0  0  0  0  0  0  0
   -0.5351   -1.5802   34.9531 C   0  0  0  0  0  0  0  0  0  0  0  0
   -1.9606   -1.9889   34.5547 C   0  0  0  0  0  0  0  0  0  0  0  0
   -3.0852   -1.0120   34.8283 C   0  0  0  0  0  0  0  0  0  0  0  0
   -2.8943    0.1603   35.5774 C   0  0  0  0  0  0  0  0  0  0  0  0
   -3.9672    1.0018   35.8835 C   0  0  0  0  0  0  0  0  0  0  0  0
   -5.2506    0.6852   35.4499 C   0  0  0  0  0  0  0  0  0  0  0  0
   -5.4623   -0.4670   34.6995 C   0  0  0  0  0  0  0  0  0  0  0  0
   -4.3917   -1.3127   34.4016 C   0  0  0  0  0  0  0  0  0  0  0  0
   -1.7584   -2.2779   32.7820 S   0  0  0  0  0  0  0  0  0  0  0  0
   -1.6146   -0.9886   32.1403 O   0  0  0  0  0  0  0  0  0  0  0  0
   -2.6460   -3.2942   32.2592 O   0  0  0  0  0  0  0  0  0  0  0  0
    0.9688   -1.9848   30.7502 N   0  0  0  0  0  0  0  0  0  0  0  0
    2.4909   -1.8134   30.7129 C   0  0  0  0  0  0  0  0  0  0  0  0
    3.2297   -1.7579   29.3508 C   0  0  0  0  0  0  0  0  0  0  0  0
    2.8068   -0.5272   28.5572 C   0  0  0  0  0  0  0  0  0  0  0  0
    1.3001   -0.4670   28.6993 C   0  0  0  0  0  0  0  0  0  0  0  0
    0.5391    0.6988   28.1263 C   0  0  0  0  0  0  0  0  0  0  0  0
   -0.7564    0.4313   27.6465 C   0  0  0  0  0  0  0  0  0  0  0  0
   -1.5829    1.4550   27.2070 C   0  0  0  0  0  0  0  0  0  0  0  0
   -1.1454    2.7759   27.2530 C   0  0  0  0  0  0  0  0  0  0  0  0
   -2.1086    3.8714   26.9101 C   0  0  0  0  0  0  0  0  0  0  0  0
   -1.5139    4.8196   26.0349 O   0  0  0  0  0  0  0  0  0  0  0  0
    0.1485    3.0489   27.7185 C   0  0  0  0  0  0  0  0  0  0  0  0
    0.9902    2.0181   28.1500 C   0  0  0  0  0  0  0  0  0  0  0  0
    1.0148   -0.5922   30.2097 C   0  0  0  0  0  0  0  0  0  0  0  0
    1.0037   -5.7162   29.5029 H   0  0  0  0  0  0  0  0  0  0  0  0
    0.4266   -7.7796   30.6925 H   0  0  0  0  0  0  0  0  0  0  0  0
   -1.0224   -5.0127   35.0527 H   0  0  0  0  0  0  0  0  0  0  0  0
    0.5512   -3.4508   34.9459 H   0  0  0  0  0  0  0  0  0  0  0  0
    1.3914   -2.1316   34.1293 H   0  0  0  0  0  0  0  0  0  0  0  0
   -0.2966   -0.5771   34.5754 H   0  0  0  0  0  0  0  0  0  0  0  0
   -0.3976   -1.5614   36.0394 H   0  0  0  0  0  0  0  0  0  0  0  0
   -2.1888   -2.9348   35.0450 H   0  0  0  0  0  0  0  0  0  0  0  0
   -1.9133    0.4371   35.9557 H   0  0  0  0  0  0  0  0  0  0  0  0
   -3.7993    1.8970   36.4775 H   0  0  0  0  0  0  0  0  0  0  0  0
   -6.0856    1.3283   35.7101 H   0  0  0  0  0  0  0  0  0  0  0  0
   -6.4614   -0.7184   34.3496 H   0  0  0  0  0  0  0  0  0  0  0  0
   -4.5972   -2.2217   33.8358 H   0  0  0  0  0  0  0  0  0  0  0  0
    2.8583   -2.7432   31.1766 H   0  0  0  0  0  0  0  0  0  0  0  0
    2.8532   -1.0556   31.4290 H   0  0  0  0  0  0  0  0  0  0  0  0
    4.3127   -1.7406   29.5156 H   0  0  0  0  0  0  0  0  0  0  0  0
    3.0096   -2.6636   28.7728 H   0  0  0  0  0  0  0  0  0  0  0  0
    3.1172   -0.6024   27.5097 H   0  0  0  0  0  0  0  0  0  0  0  0
    3.2864    0.3644   28.9777 H   0  0  0  0  0  0  0  0  0  0  0  0
    0.9195   -1.3466   28.1705 H   0  0  0  0  0  0  0  0  0  0  0  0
   -1.1390   -0.5911   27.6194 H   0  0  0  0  0  0  0  0  0  0  0  0
   -2.5794    1.2162   26.8477 H   0  0  0  0  0  0  0  0  0  0  0  0
   -2.4036    4.3795   27.8328 H   0  0  0  0  0  0  0  0  0  0  0  0
   -3.0044    3.4756   26.4198 H   0  0  0  0  0  0  0  0  0  0  0  0
   -2.2237    5.4711   25.8682 H   0  0  0  0  0  0  0  0  0  0  0  0
    0.4900    4.0811   27.7679 H   0  0  0  0  0  0  0  0  0  0  0  0
    1.9735    2.2711   28.5330 H   0  0  0  0  0  0  0  0  0  0  0  0
    1.4828    0.1753   30.8513 H   0  0  0  0  0  0  0  0  0  0  0  0
   -0.0453   -0.3185   30.3160 H   0  0  0  0  0  0  0  0  0  0  0  0
  1  2  2  0
  2  3  1  0
  3  4  1  0
  4  5  2  0
  5  6  1  0
  6  7  2  0
  7  8  1  0
  8  9  2  0
  9 10  1  0
 10 11  1  0
 11 12  1  0
 12 13  1  0
 13 14  1  0
 14 15  1  0
 15 16  1  0
 16 17  2  0
 17 18  1  0
 18 19  2  0
 19 20  1  0
 20 21  2  0
 15 22  1  0
 22 23  2  0
 22 24  2  0
  2 25  1  0
 25 26  1  0
 26 27  1  0
 27 28  1  0
 28 29  1  0
 29 30  1  0
 30 31  2  0
 31 32  1  0
 32 33  2  0
 33 34  1  0
 34 35  1  0
 33 36  1  0
 36 37  2  0
 29 38  1  0
 11  3  2  0
 22 12  1  0
 38 25  1  0
 10  6  1  0
 21 16  1  0
 37 30  1  0
  4 39  1  0
  5 40  1  0
  9 41  1  0
 13 42  1  0
 13 43  1  0
 14 44  1  0
 14 45  1  0
 15 46  1  0
 17 47  1  0
 18 48  1  0
 19 49  1  0
 20 50  1  0
 21 51  1  0
 26 52  1  0
 26 53  1  0
 27 54  1  0
 27 55  1  0
 28 56  1  0
 28 57  1  0
 29 58  1  0
 31 59  1  0
 32 60  1  0
 34 61  1  0
 34 62  1  0
 35 63  1  0
 36 64  1  0
 37 65  1  0
 38 66  1  0
 38 67  1  0
M  END
>  <Energy>  (310) 
178.54818079099095

>  <compound_id>  (310) 
4047

>  <target_id>  (310) 
1

>  <reference_id>  (310) 
132

>  <inspiration_ids>  (310) 
[141, 132]

>  <energy_score>  (310) 
13.315854930023534

>  <distance_score>  (310) 
2.0160801970691686

>  <path>  (310) 
/opt/xchem-fragalysis-2/maxwin/BulkDock/SCRATCH/505735/C4047-P132/C4047-P132.minimised.mol

>  <scratch_subdir>  (310) 
/opt/xchem-fragalysis-2/maxwin/BulkDock/SCRATCH/505735/C4047-P132

>  <fragmenstein_runtime>  (310) 
11.502458810806274

>  <fragmenstein_outcome>  (310) 
too moved

>  <fragmenstein_mode>  (310) 
expansion

>  <fragmenstein_error>  (310) 


$$$$
C4049-P141
     RDKit          3D

 63 68  0  0  0  0  0  0  0  0999 V2000
    0.5653   -3.6159   30.6673 O   0  0  0  0  0  0  0  0  0  0  0  0
    0.9943   -2.9987   31.6089 C   0  0  0  0  0  0  0  0  0  0  0  0
    1.3289   -3.7893   32.8341 C   0  0  0  0  0  0  0  0  0  0  0  0
    2.6627   -4.3713   32.9441 C   0  0  0  0  0  0  0  0  0  0  0  0
    2.8866   -5.4682   33.6820 C   0  0  0  0  0  0  0  0  0  0  0  0
    1.7909   -6.1196   34.2890 C   0  0  0  0  0  0  0  0  0  0  0  0
    1.6789   -7.2989   34.8579 N   0  0  0  0  0  0  0  0  0  0  0  0
    0.3931   -7.4093   35.3251 N   0  0  0  0  0  0  0  0  0  0  0  0
   -0.2447   -6.3009   35.0191 C   0  0  0  0  0  0  0  0  0  0  0  0
    0.5663   -5.4639   34.2935 N   0  0  0  0  0  0  0  0  0  0  0  0
    0.3022   -4.2538   33.5997 C   0  0  0  0  0  0  0  0  0  0  0  0
   -0.9903   -3.7344   33.6625 N   0  0  0  0  0  0  0  0  0  0  0  0
   -1.3162   -2.4357   33.8884 C   0  0  0  0  0  0  0  0  0  0  0  0
   -0.6006   -1.3525   34.0830 N   0  0  0  0  0  0  0  0  0  0  0  0
   -1.4654   -0.2904   34.2614 N   0  0  0  0  0  0  0  0  0  0  0  0
   -2.7022   -0.7457   34.1910 C   0  0  0  0  0  0  0  0  0  0  0  0
   -3.9372    0.0262   34.3062 C   0  0  0  0  0  0  0  0  0  0  0  0
   -5.1739   -0.4748   33.8717 C   0  0  0  0  0  0  0  0  0  0  0  0
   -6.3326    0.3011   33.9742 C   0  0  0  0  0  0  0  0  0  0  0  0
   -6.2705    1.5852   34.5105 C   0  0  0  0  0  0  0  0  0  0  0  0
   -5.0504    2.0965   34.9454 C   0  0  0  0  0  0  0  0  0  0  0  0
   -3.8923    1.3218   34.8421 C   0  0  0  0  0  0  0  0  0  0  0  0
   -2.6352   -2.0976   33.9992 N   0  0  0  0  0  0  0  0  0  0  0  0
    1.1587   -1.6054   31.8001 N   0  0  0  0  0  0  0  0  0  0  0  0
    2.5485   -1.1701   31.3429 C   0  0  0  0  0  0  0  0  0  0  0  0
    2.9960   -1.5183   29.9122 C   0  0  0  0  0  0  0  0  0  0  0  0
    2.2116   -0.6798   28.9276 C   0  0  0  0  0  0  0  0  0  0  0  0
    0.7655   -0.6608   29.4023 C   0  0  0  0  0  0  0  0  0  0  0  0
   -0.0715    0.3472   28.6485 C   0  0  0  0  0  0  0  0  0  0  0  0
   -1.1237   -0.1086   27.8463 C   0  0  0  0  0  0  0  0  0  0  0  0
   -1.9031    0.7878   27.1171 C   0  0  0  0  0  0  0  0  0  0  0  0
   -1.6581    2.1625   27.1725 C   0  0  0  0  0  0  0  0  0  0  0  0
   -2.5533    3.0979   26.4061 C   0  0  0  0  0  0  0  0  0  0  0  0
   -1.9287    4.3566   26.1823 O   0  0  0  0  0  0  0  0  0  0  0  0
   -0.6247    2.6215   27.9965 C   0  0  0  0  0  0  0  0  0  0  0  0
    0.1666    1.7248   28.7205 C   0  0  0  0  0  0  0  0  0  0  0  0
    0.7475   -0.4362   30.9374 C   0  0  0  0  0  0  0  0  0  0  0  0
    3.4839   -3.8862   32.4293 H   0  0  0  0  0  0  0  0  0  0  0  0
    3.8809   -5.8763   33.8059 H   0  0  0  0  0  0  0  0  0  0  0  0
   -1.2682   -6.0789   35.2775 H   0  0  0  0  0  0  0  0  0  0  0  0
   -1.7090   -4.4085   33.9378 H   0  0  0  0  0  0  0  0  0  0  0  0
   -5.2601   -1.4650   33.4316 H   0  0  0  0  0  0  0  0  0  0  0  0
   -7.2844   -0.0972   33.6299 H   0  0  0  0  0  0  0  0  0  0  0  0
   -7.1745    2.1835   34.5981 H   0  0  0  0  0  0  0  0  0  0  0  0
   -4.9970    3.0939   35.3758 H   0  0  0  0  0  0  0  0  0  0  0  0
   -2.9448    1.7333   35.1905 H   0  0  0  0  0  0  0  0  0  0  0  0
   -3.3961   -2.7579   33.9750 H   0  0  0  0  0  0  0  0  0  0  0  0
    3.2197   -1.7554   31.9859 H   0  0  0  0  0  0  0  0  0  0  0  0
    2.8291   -0.1470   31.6492 H   0  0  0  0  0  0  0  0  0  0  0  0
    2.8481   -2.5837   29.7048 H   0  0  0  0  0  0  0  0  0  0  0  0
    4.0676   -1.3202   29.7966 H   0  0  0  0  0  0  0  0  0  0  0  0
    2.6341    0.3326   28.9072 H   0  0  0  0  0  0  0  0  0  0  0  0
    2.2989   -1.0788   27.9112 H   0  0  0  0  0  0  0  0  0  0  0  0
    0.3420   -1.6527   29.2024 H   0  0  0  0  0  0  0  0  0  0  0  0
   -1.3393   -1.1731   27.7551 H   0  0  0  0  0  0  0  0  0  0  0  0
   -2.6971    0.3937   26.4882 H   0  0  0  0  0  0  0  0  0  0  0  0
   -3.4753    3.2507   26.9704 H   0  0  0  0  0  0  0  0  0  0  0  0
   -2.7997    2.6765   25.4268 H   0  0  0  0  0  0  0  0  0  0  0  0
   -2.6602    4.9975   26.0703 H   0  0  0  0  0  0  0  0  0  0  0  0
   -0.4343    3.6903   28.0807 H   0  0  0  0  0  0  0  0  0  0  0  0
    0.9655    2.1238   29.3397 H   0  0  0  0  0  0  0  0  0  0  0  0
   -0.3255   -0.3777   31.1855 H   0  0  0  0  0  0  0  0  0  0  0  0
    1.0956    0.5519   31.2830 H   0  0  0  0  0  0  0  0  0  0  0  0
  1  2  2  0
  2  3  1  0
  3  4  1  0
  4  5  2  0
  5  6  1  0
  6  7  2  0
  7  8  1  0
  8  9  2  0
  9 10  1  0
 10 11  1  0
 11 12  1  0
 12 13  1  0
 13 14  2  0
 14 15  1  0
 15 16  2  0
 16 17  1  0
 17 18  2  0
 18 19  1  0
 19 20  2  0
 20 21  1  0
 21 22  2  0
 16 23  1  0
  2 24  1  0
 24 25  1  0
 25 26  1  0
 26 27  1  0
 27 28  1  0
 28 29  1  0
 29 30  2  0
 30 31  1  0
 31 32  2  0
 32 33  1  0
 33 34  1  0
 32 35  1  0
 35 36  2  0
 28 37  1  0
 11  3  2  0
 23 13  1  0
 37 24  1  0
 10  6  1  0
 22 17  1  0
 36 29  1  0
  4 38  1  0
  5 39  1  0
  9 40  1  0
 12 41  1  0
 18 42  1  0
 19 43  1  0
 20 44  1  0
 21 45  1  0
 22 46  1  0
 23 47  1  0
 25 48  1  0
 25 49  1  0
 26 50  1  0
 26 51  1  0
 27 52  1  0
 27 53  1  0
 28 54  1  0
 30 55  1  0
 31 56  1  0
 33 57  1  0
 33 58  1  0
 34 59  1  0
 35 60  1  0
 36 61  1  0
 37 62  1  0
 37 63  1  0
M  END
>  <Energy>  (311) 
165.73082766110954

>  <compound_id>  (311) 
4049

>  <target_id>  (311) 
1

>  <reference_id>  (311) 
141

>  <inspiration_ids>  (311) 
[141, 134]

>  <energy_score>  (311) 
14.756017562486136

>  <distance_score>  (311) 
2.3134853769175105

>  <path>  (311) 
/opt/xchem-fragalysis-2/maxwin/BulkDock/SCRATCH/505735/C4049-P141/C4049-P141.minimised.mol

>  <scratch_subdir>  (311) 
/opt/xchem-fragalysis-2/maxwin/BulkDock/SCRATCH/505735/C4049-P141

>  <fragmenstein_runtime>  (311) 
13.565409660339355

>  <fragmenstein_outcome>  (311) 
too moved

>  <fragmenstein_mode>  (311) 
expansion

>  <fragmenstein_error>  (311) 


$$$$
C4049-P134
     RDKit          3D

 63 68  0  0  0  0  0  0  0  0999 V2000
   -1.8844   -3.6422   31.3866 O   0  0  0  0  0  0  0  0  0  0  0  0
   -0.8885   -3.5124   32.0506 C   0  0  0  0  0  0  0  0  0  0  0  0
   -0.5741   -4.5894   33.0439 C   0  0  0  0  0  0  0  0  0  0  0  0
   -0.7095   -5.9425   32.4924 C   0  0  0  0  0  0  0  0  0  0  0  0
   -0.1653   -7.0095   33.0818 C   0  0  0  0  0  0  0  0  0  0  0  0
    0.5917   -6.8117   34.2512 C   0  0  0  0  0  0  0  0  0  0  0  0
    1.4281   -7.5902   34.8975 N   0  0  0  0  0  0  0  0  0  0  0  0
    1.8290   -6.9195   36.0227 N   0  0  0  0  0  0  0  0  0  0  0  0
    1.2545   -5.7363   36.0130 C   0  0  0  0  0  0  0  0  0  0  0  0
    0.5408   -5.5628   34.8565 N   0  0  0  0  0  0  0  0  0  0  0  0
   -0.0560   -4.4087   34.2872 C   0  0  0  0  0  0  0  0  0  0  0  0
    0.0424   -3.2183   35.0036 N   0  0  0  0  0  0  0  0  0  0  0  0
   -0.7834   -2.1477   35.0070 C   0  0  0  0  0  0  0  0  0  0  0  0
   -0.5144   -0.9136   35.3637 N   0  0  0  0  0  0  0  0  0  0  0  0
   -1.6581   -0.1645   35.1954 N   0  0  0  0  0  0  0  0  0  0  0  0
   -2.6205   -0.9608   34.7639 C   0  0  0  0  0  0  0  0  0  0  0  0
   -3.9998   -0.5841   34.4597 C   0  0  0  0  0  0  0  0  0  0  0  0
   -4.8477   -1.3980   33.6945 C   0  0  0  0  0  0  0  0  0  0  0  0
   -6.1640   -1.0065   33.4314 C   0  0  0  0  0  0  0  0  0  0  0  0
   -6.6449    0.2058   33.9226 C   0  0  0  0  0  0  0  0  0  0  0  0
   -5.8132    1.0295   34.6759 C   0  0  0  0  0  0  0  0  0  0  0  0
   -4.4989    0.6371   34.9394 C   0  0  0  0  0  0  0  0  0  0  0  0
   -2.1082   -2.2298   34.6770 N   0  0  0  0  0  0  0  0  0  0  0  0
    0.1388   -2.5271   31.9990 N   0  0  0  0  0  0  0  0  0  0  0  0
    1.2560   -2.9797   31.0672 C   0  0  0  0  0  0  0  0  0  0  0  0
    0.9343   -3.4213   29.6476 C   0  0  0  0  0  0  0  0  0  0  0  0
    0.5970   -2.1901   28.8615 C   0  0  0  0  0  0  0  0  0  0  0  0
   -0.3238   -1.3284   29.7163 C   0  0  0  0  0  0  0  0  0  0  0  0
   -0.6176   -0.0538   28.9600 C   0  0  0  0  0  0  0  0  0  0  0  0
   -1.4531   -0.1767   27.8401 C   0  0  0  0  0  0  0  0  0  0  0  0
   -1.7903    0.9236   27.0648 C   0  0  0  0  0  0  0  0  0  0  0  0
   -1.3148    2.1920   27.3857 C   0  0  0  0  0  0  0  0  0  0  0  0
   -1.8131    3.3362   26.5493 C   0  0  0  0  0  0  0  0  0  0  0  0
   -1.2326    4.5815   26.9026 O   0  0  0  0  0  0  0  0  0  0  0  0
   -0.4604    2.3236   28.4869 C   0  0  0  0  0  0  0  0  0  0  0  0
   -0.1064    1.2082   29.2665 C   0  0  0  0  0  0  0  0  0  0  0  0
    0.2563   -1.2485   31.1615 C   0  0  0  0  0  0  0  0  0  0  0  0
   -1.2774   -6.0726   31.5768 H   0  0  0  0  0  0  0  0  0  0  0  0
   -0.3031   -8.0015   32.6744 H   0  0  0  0  0  0  0  0  0  0  0  0
    1.3504   -4.9792   36.7774 H   0  0  0  0  0  0  0  0  0  0  0  0
    0.9566   -3.0425   35.4141 H   0  0  0  0  0  0  0  0  0  0  0  0
   -4.4993   -2.3409   33.2802 H   0  0  0  0  0  0  0  0  0  0  0  0
   -6.8131   -1.6471   32.8371 H   0  0  0  0  0  0  0  0  0  0  0  0
   -7.6700    0.5057   33.7193 H   0  0  0  0  0  0  0  0  0  0  0  0
   -6.1878    1.9703   35.0717 H   0  0  0  0  0  0  0  0  0  0  0  0
   -3.8608    1.2851   35.5400 H   0  0  0  0  0  0  0  0  0  0  0  0
   -2.6138   -3.0779   34.4523 H   0  0  0  0  0  0  0  0  0  0  0  0
    1.6015   -3.9087   31.5496 H   0  0  0  0  0  0  0  0  0  0  0  0
    2.1759   -2.3734   31.1407 H   0  0  0  0  0  0  0  0  0  0  0  0
    0.1019   -4.1328   29.6287 H   0  0  0  0  0  0  0  0  0  0  0  0
    1.7962   -3.9281   29.1991 H   0  0  0  0  0  0  0  0  0  0  0  0
    1.5143   -1.6430   28.6068 H   0  0  0  0  0  0  0  0  0  0  0  0
    0.1204   -2.4781   27.9259 H   0  0  0  0  0  0  0  0  0  0  0  0
   -1.2919   -1.8405   29.8044 H   0  0  0  0  0  0  0  0  0  0  0  0
   -1.8639   -1.1467   27.5563 H   0  0  0  0  0  0  0  0  0  0  0  0
   -2.4513    0.7823   26.2132 H   0  0  0  0  0  0  0  0  0  0  0  0
   -2.8988    3.4051   26.6706 H   0  0  0  0  0  0  0  0  0  0  0  0
   -1.5870    3.1534   25.4933 H   0  0  0  0  0  0  0  0  0  0  0  0
   -1.8956    5.2450   26.6272 H   0  0  0  0  0  0  0  0  0  0  0  0
   -0.0860    3.3086   28.7618 H   0  0  0  0  0  0  0  0  0  0  0  0
    0.5536    1.3604   30.1150 H   0  0  0  0  0  0  0  0  0  0  0  0
   -0.4357   -0.5831   31.7016 H   0  0  0  0  0  0  0  0  0  0  0  0
    1.2161   -0.7161   31.2611 H   0  0  0  0  0  0  0  0  0  0  0  0
  1  2  2  0
  2  3  1  0
  3  4  1  0
  4  5  2  0
  5  6  1  0
  6  7  2  0
  7  8  1  0
  8  9  2  0
  9 10  1  0
 10 11  1  0
 11 12  1  0
 12 13  1  0
 13 14  2  0
 14 15  1  0
 15 16  2  0
 16 17  1  0
 17 18  2  0
 18 19  1  0
 19 20  2  0
 20 21  1  0
 21 22  2  0
 16 23  1  0
  2 24  1  0
 24 25  1  0
 25 26  1  0
 26 27  1  0
 27 28  1  0
 28 29  1  0
 29 30  2  0
 30 31  1  0
 31 32  2  0
 32 33  1  0
 33 34  1  0
 32 35  1  0
 35 36  2  0
 28 37  1  0
 11  3  2  0
 23 13  1  0
 37 24  1  0
 10  6  1  0
 22 17  1  0
 36 29  1  0
  4 38  1  0
  5 39  1  0
  9 40  1  0
 12 41  1  0
 18 42  1  0
 19 43  1  0
 20 44  1  0
 21 45  1  0
 22 46  1  0
 23 47  1  0
 25 48  1  0
 25 49  1  0
 26 50  1  0
 26 51  1  0
 27 52  1  0
 27 53  1  0
 28 54  1  0
 30 55  1  0
 31 56  1  0
 33 57  1  0
 33 58  1  0
 34 59  1  0
 35 60  1  0
 36 61  1  0
 37 62  1  0
 37 63  1  0
M  END
>  <Energy>  (312) 
156.81141128515475

>  <compound_id>  (312) 
4049

>  <target_id>  (312) 
1

>  <reference_id>  (312) 
134

>  <inspiration_ids>  (312) 
[141, 134]

>  <energy_score>  (312) 
5.836601186529833

>  <distance_score>  (312) 
2.2716279115089497

>  <path>  (312) 
/opt/xchem-fragalysis-2/maxwin/BulkDock/SCRATCH/505735/C4049-P134/C4049-P134.minimised.mol

>  <scratch_subdir>  (312) 
/opt/xchem-fragalysis-2/maxwin/BulkDock/SCRATCH/505735/C4049-P134

>  <fragmenstein_runtime>  (312) 
19.942439556121826

>  <fragmenstein_outcome>  (312) 
too moved

>  <fragmenstein_mode>  (312) 
expansion

>  <fragmenstein_error>  (312) 


$$$$
C4050-P141
     RDKit          3D

 70 75  0  0  0  0  0  0  0  0999 V2000
    2.7832   -3.1855   32.2785 O   0  0  0  0  0  0  0  0  0  0  0  0
    1.7681   -3.5544   31.7610 C   0  0  0  0  0  0  0  0  0  0  0  0
    1.1683   -4.9288   31.9427 C   0  0  0  0  0  0  0  0  0  0  0  0
    0.8448   -5.7012   30.7326 C   0  0  0  0  0  0  0  0  0  0  0  0
    0.0213   -6.7606   30.7668 C   0  0  0  0  0  0  0  0  0  0  0  0
   -0.5582   -7.1425   31.9936 C   0  0  0  0  0  0  0  0  0  0  0  0
   -1.4787   -8.0290   32.2793 N   0  0  0  0  0  0  0  0  0  0  0  0
   -1.6902   -7.9711   33.6324 N   0  0  0  0  0  0  0  0  0  0  0  0
   -0.8633   -7.0883   34.1413 C   0  0  0  0  0  0  0  0  0  0  0  0
   -0.1552   -6.4797   33.1442 N   0  0  0  0  0  0  0  0  0  0  0  0
    0.7186   -5.3843   33.1344 C   0  0  0  0  0  0  0  0  0  0  0  0
    1.1214   -4.6477   34.2952 N   0  0  0  0  0  0  0  0  0  0  0  0
    0.1198   -4.0350   35.1884 C   0  0  0  0  0  0  0  0  0  0  0  0
    0.7441   -2.7838   35.8171 C   0  0  0  0  0  0  0  0  0  0  0  0
    2.2712   -2.8529   36.0063 C   0  0  0  0  0  0  0  0  0  0  0  0
    2.7510   -4.2456   36.4345 C   0  0  0  0  0  0  0  0  0  0  0  0
    4.2151   -4.3465   36.8022 C   0  0  0  0  0  0  0  0  0  0  0  0
    5.2219   -3.7488   36.0279 C   0  0  0  0  0  0  0  0  0  0  0  0
    6.5644   -3.8616   36.3951 C   0  0  0  0  0  0  0  0  0  0  0  0
    6.9202   -4.5729   37.5380 C   0  0  0  0  0  0  0  0  0  0  0  0
    5.9345   -5.1781   38.3129 C   0  0  0  0  0  0  0  0  0  0  0  0
    4.5916   -5.0682   37.9476 C   0  0  0  0  0  0  0  0  0  0  0  0
    2.3763   -5.4817   35.1506 S   0  0  0  0  0  0  0  0  0  0  0  0
    3.4668   -5.6813   34.2212 O   0  0  0  0  0  0  0  0  0  0  0  0
    1.7502   -6.6295   35.7798 O   0  0  0  0  0  0  0  0  0  0  0  0
    0.9157   -2.9031   30.8200 N   0  0  0  0  0  0  0  0  0  0  0  0
   -0.1628   -2.1159   31.5480 C   0  0  0  0  0  0  0  0  0  0  0  0
   -1.4814   -2.0319   30.7809 C   0  0  0  0  0  0  0  0  0  0  0  0
   -1.2175   -2.2102   29.3020 C   0  0  0  0  0  0  0  0  0  0  0  0
    0.0358   -1.4002   28.9306 C   0  0  0  0  0  0  0  0  0  0  0  0
   -0.3187    0.0243   28.5253 C   0  0  0  0  0  0  0  0  0  0  0  0
   -1.3544    0.2161   27.5905 C   0  0  0  0  0  0  0  0  0  0  0  0
   -1.7723    1.4869   27.2032 C   0  0  0  0  0  0  0  0  0  0  0  0
   -1.1325    2.6182   27.7026 C   0  0  0  0  0  0  0  0  0  0  0  0
   -1.6410    3.9901   27.3618 C   0  0  0  0  0  0  0  0  0  0  0  0
   -1.9475    4.0880   25.9777 O   0  0  0  0  0  0  0  0  0  0  0  0
   -0.0629    2.4444   28.5890 C   0  0  0  0  0  0  0  0  0  0  0  0
    0.3447    1.1641   28.9901 C   0  0  0  0  0  0  0  0  0  0  0  0
    1.0742   -1.5875   30.0865 C   0  0  0  0  0  0  0  0  0  0  0  0
    1.2906   -5.3776   29.7954 H   0  0  0  0  0  0  0  0  0  0  0  0
   -0.2289   -7.3364   29.8875 H   0  0  0  0  0  0  0  0  0  0  0  0
   -0.7706   -6.8514   35.1897 H   0  0  0  0  0  0  0  0  0  0  0  0
   -0.1912   -4.7367   35.9697 H   0  0  0  0  0  0  0  0  0  0  0  0
   -0.7817   -3.7544   34.6339 H   0  0  0  0  0  0  0  0  0  0  0  0
    0.2580   -2.5970   36.7823 H   0  0  0  0  0  0  0  0  0  0  0  0
    0.5195   -1.9121   35.1896 H   0  0  0  0  0  0  0  0  0  0  0  0
    2.5687   -2.1009   36.7475 H   0  0  0  0  0  0  0  0  0  0  0  0
    2.7491   -2.5595   35.0632 H   0  0  0  0  0  0  0  0  0  0  0  0
    2.1463   -4.5426   37.3024 H   0  0  0  0  0  0  0  0  0  0  0  0
    4.9795   -3.2078   35.1144 H   0  0  0  0  0  0  0  0  0  0  0  0
    7.3337   -3.4002   35.7809 H   0  0  0  0  0  0  0  0  0  0  0  0
    7.9660   -4.6622   37.8200 H   0  0  0  0  0  0  0  0  0  0  0  0
    6.2115   -5.7402   39.2014 H   0  0  0  0  0  0  0  0  0  0  0  0
    3.8428   -5.5571   38.5690 H   0  0  0  0  0  0  0  0  0  0  0  0
   -0.4140   -2.7238   32.4304 H   0  0  0  0  0  0  0  0  0  0  0  0
    0.1447   -1.1870   32.0590 H   0  0  0  0  0  0  0  0  0  0  0  0
   -1.9635   -1.0685   30.9838 H   0  0  0  0  0  0  0  0  0  0  0  0
   -2.1744   -2.8099   31.1220 H   0  0  0  0  0  0  0  0  0  0  0  0
   -1.0228   -3.2731   29.1022 H   0  0  0  0  0  0  0  0  0  0  0  0
   -2.1161   -1.9689   28.7315 H   0  0  0  0  0  0  0  0  0  0  0  0
    0.4682   -1.8631   28.0351 H   0  0  0  0  0  0  0  0  0  0  0  0
   -1.8591   -0.6332   27.1293 H   0  0  0  0  0  0  0  0  0  0  0  0
   -2.6010    1.5887   26.5041 H   0  0  0  0  0  0  0  0  0  0  0  0
   -2.5424    4.1894   27.9468 H   0  0  0  0  0  0  0  0  0  0  0  0
   -0.8971    4.7588   27.5935 H   0  0  0  0  0  0  0  0  0  0  0  0
   -2.6267    4.7876   25.9045 H   0  0  0  0  0  0  0  0  0  0  0  0
    0.4531    3.3152   28.9893 H   0  0  0  0  0  0  0  0  0  0  0  0
    1.1892    1.1020   29.6681 H   0  0  0  0  0  0  0  0  0  0  0  0
    2.0384   -1.7314   29.5712 H   0  0  0  0  0  0  0  0  0  0  0  0
    1.3333   -0.7172   30.7080 H   0  0  0  0  0  0  0  0  0  0  0  0
  1  2  2  0
  2  3  1  0
  3  4  1  0
  4  5  2  0
  5  6  1  0
  6  7  2  0
  7  8  1  0
  8  9  2  0
  9 10  1  0
 10 11  1  0
 11 12  1  0
 12 13  1  0
 13 14  1  0
 14 15  1  0
 15 16  1  0
 16 17  1  0
 17 18  2  0
 18 19  1  0
 19 20  2  0
 20 21  1  0
 21 22  2  0
 16 23  1  0
 23 24  2  0
 23 25  2  0
  2 26  1  0
 26 27  1  0
 27 28  1  0
 28 29  1  0
 29 30  1  0
 30 31  1  0
 31 32  2  0
 32 33  1  0
 33 34  2  0
 34 35  1  0
 35 36  1  0
 34 37  1  0
 37 38  2  0
 30 39  1  0
 11  3  2  0
 23 12  1  0
 39 26  1  0
 10  6  1  0
 22 17  1  0
 38 31  1  0
  4 40  1  0
  5 41  1  0
  9 42  1  0
 13 43  1  0
 13 44  1  0
 14 45  1  0
 14 46  1  0
 15 47  1  0
 15 48  1  0
 16 49  1  0
 18 50  1  0
 19 51  1  0
 20 52  1  0
 21 53  1  0
 22 54  1  0
 27 55  1  0
 27 56  1  0
 28 57  1  0
 28 58  1  0
 29 59  1  0
 29 60  1  0
 30 61  1  0
 32 62  1  0
 33 63  1  0
 35 64  1  0
 35 65  1  0
 36 66  1  0
 37 67  1  0
 38 68  1  0
 39 69  1  0
 39 70  1  0
M  END
>  <Energy>  (313) 
180.9444795960639

>  <compound_id>  (313) 
4050

>  <target_id>  (313) 
1

>  <reference_id>  (313) 
141

>  <inspiration_ids>  (313) 
[141, 135]

>  <energy_score>  (313) 
16.244557662332568

>  <distance_score>  (313) 
2.150290238902405

>  <path>  (313) 
/opt/xchem-fragalysis-2/maxwin/BulkDock/SCRATCH/505735/C4050-P141/C4050-P141.minimised.mol

>  <scratch_subdir>  (313) 
/opt/xchem-fragalysis-2/maxwin/BulkDock/SCRATCH/505735/C4050-P141

>  <fragmenstein_runtime>  (313) 
14.34097146987915

>  <fragmenstein_outcome>  (313) 
too moved

>  <fragmenstein_mode>  (313) 
expansion

>  <fragmenstein_error>  (313) 


$$$$
C4050-P135
     RDKit          3D

 70 75  0  0  0  0  0  0  0  0999 V2000
   -0.1627   -3.3015   29.5206 O   0  0  0  0  0  0  0  0  0  0  0  0
    0.3325   -3.3898   30.5793 C   0  0  0  0  0  0  0  0  0  0  0  0
    0.2359   -4.7144   31.2597 C   0  0  0  0  0  0  0  0  0  0  0  0
    0.4877   -5.8277   30.3178 C   0  0  0  0  0  0  0  0  0  0  0  0
    0.0795   -7.0820   30.5452 C   0  0  0  0  0  0  0  0  0  0  0  0
   -0.5835   -7.3479   31.7497 C   0  0  0  0  0  0  0  0  0  0  0  0
   -1.2648   -8.3873   32.1538 N   0  0  0  0  0  0  0  0  0  0  0  0
   -1.6502   -8.1341   33.4441 N   0  0  0  0  0  0  0  0  0  0  0  0
   -1.1786   -6.9616   33.7945 C   0  0  0  0  0  0  0  0  0  0  0  0
   -0.5794   -6.3637   32.7239 N   0  0  0  0  0  0  0  0  0  0  0  0
   -0.1746   -5.0317   32.5098 C   0  0  0  0  0  0  0  0  0  0  0  0
   -0.3151   -4.0791   33.5859 N   0  0  0  0  0  0  0  0  0  0  0  0
   -1.0017   -2.7755   33.4559 C   0  0  0  0  0  0  0  0  0  0  0  0
   -1.5267   -2.2901   34.8117 C   0  0  0  0  0  0  0  0  0  0  0  0
   -0.4298   -2.1477   35.8684 C   0  0  0  0  0  0  0  0  0  0  0  0
    0.2547   -3.4906   36.1472 C   0  0  0  0  0  0  0  0  0  0  0  0
    1.2843   -3.4444   37.2594 C   0  0  0  0  0  0  0  0  0  0  0  0
    2.2892   -2.4650   37.3132 C   0  0  0  0  0  0  0  0  0  0  0  0
    3.2167   -2.4509   38.3570 C   0  0  0  0  0  0  0  0  0  0  0  0
    3.1542   -3.4130   39.3615 C   0  0  0  0  0  0  0  0  0  0  0  0
    2.1666   -4.3932   39.3219 C   0  0  0  0  0  0  0  0  0  0  0  0
    1.2388   -4.4103   38.2790 C   0  0  0  0  0  0  0  0  0  0  0  0
    1.0472   -4.1073   34.6449 S   0  0  0  0  0  0  0  0  0  0  0  0
    2.0079   -3.1373   34.1602 O   0  0  0  0  0  0  0  0  0  0  0  0
    1.4273   -5.4962   34.8231 O   0  0  0  0  0  0  0  0  0  0  0  0
    1.1486   -2.4089   31.3469 N   0  0  0  0  0  0  0  0  0  0  0  0
    2.6287   -2.5641   31.0408 C   0  0  0  0  0  0  0  0  0  0  0  0
    3.0830   -2.6278   29.5820 C   0  0  0  0  0  0  0  0  0  0  0  0
    2.3363   -1.6440   28.7148 C   0  0  0  0  0  0  0  0  0  0  0  0
    1.7367   -0.5355   29.5707 C   0  0  0  0  0  0  0  0  0  0  0  0
    0.5633    0.1868   28.9210 C   0  0  0  0  0  0  0  0  0  0  0  0
   -0.4558   -0.4619   28.2154 C   0  0  0  0  0  0  0  0  0  0  0  0
   -1.4398    0.2605   27.5344 C   0  0  0  0  0  0  0  0  0  0  0  0
   -1.4592    1.6539   27.5668 C   0  0  0  0  0  0  0  0  0  0  0  0
   -2.4770    2.4388   26.7914 C   0  0  0  0  0  0  0  0  0  0  0  0
   -1.8987    2.8594   25.5621 O   0  0  0  0  0  0  0  0  0  0  0  0
   -0.4684    2.3094   28.3005 C   0  0  0  0  0  0  0  0  0  0  0  0
    0.5222    1.5871   28.9735 C   0  0  0  0  0  0  0  0  0  0  0  0
    1.5007   -0.9745   31.0462 C   0  0  0  0  0  0  0  0  0  0  0  0
    1.0139   -5.5818   29.3988 H   0  0  0  0  0  0  0  0  0  0  0  0
    0.2503   -7.8998   29.8562 H   0  0  0  0  0  0  0  0  0  0  0  0
   -1.2936   -6.4888   34.7578 H   0  0  0  0  0  0  0  0  0  0  0  0
   -1.8439   -2.8712   32.7616 H   0  0  0  0  0  0  0  0  0  0  0  0
   -0.3371   -2.0040   33.0741 H   0  0  0  0  0  0  0  0  0  0  0  0
   -2.2918   -2.9668   35.1975 H   0  0  0  0  0  0  0  0  0  0  0  0
   -2.0136   -1.3174   34.6717 H   0  0  0  0  0  0  0  0  0  0  0  0
   -0.8764   -1.7624   36.7935 H   0  0  0  0  0  0  0  0  0  0  0  0
    0.2909   -1.3942   35.5288 H   0  0  0  0  0  0  0  0  0  0  0  0
   -0.5113   -4.2363   36.3991 H   0  0  0  0  0  0  0  0  0  0  0  0
    2.3759   -1.7069   36.5374 H   0  0  0  0  0  0  0  0  0  0  0  0
    3.9925   -1.6899   38.3833 H   0  0  0  0  0  0  0  0  0  0  0  0
    3.8772   -3.4022   40.1729 H   0  0  0  0  0  0  0  0  0  0  0  0
    2.1182   -5.1483   40.1031 H   0  0  0  0  0  0  0  0  0  0  0  0
    0.4799   -5.1916   38.2741 H   0  0  0  0  0  0  0  0  0  0  0  0
    3.3198   -1.9955   31.6894 H   0  0  0  0  0  0  0  0  0  0  0  0
    2.8360   -3.5812   31.4146 H   0  0  0  0  0  0  0  0  0  0  0  0
    2.9475   -3.6397   29.1803 H   0  0  0  0  0  0  0  0  0  0  0  0
    4.1607   -2.4294   29.5403 H   0  0  0  0  0  0  0  0  0  0  0  0
    2.9983   -1.2246   27.9468 H   0  0  0  0  0  0  0  0  0  0  0  0
    1.5771   -2.1955   28.1563 H   0  0  0  0  0  0  0  0  0  0  0  0
    2.5365    0.2188   29.6427 H   0  0  0  0  0  0  0  0  0  0  0  0
   -0.4852   -1.5407   28.1089 H   0  0  0  0  0  0  0  0  0  0  0  0
   -2.1534   -0.2929   26.9304 H   0  0  0  0  0  0  0  0  0  0  0  0
   -3.3692    1.8414   26.5804 H   0  0  0  0  0  0  0  0  0  0  0  0
   -2.7811    3.3277   27.3516 H   0  0  0  0  0  0  0  0  0  0  0  0
   -2.5873    3.3901   25.1225 H   0  0  0  0  0  0  0  0  0  0  0  0
   -0.4497    3.3975   28.3293 H   0  0  0  0  0  0  0  0  0  0  0  0
    1.2909    2.1444   29.5041 H   0  0  0  0  0  0  0  0  0  0  0  0
    2.1896   -0.5006   31.7687 H   0  0  0  0  0  0  0  0  0  0  0  0
    0.5616   -0.4774   31.3394 H   0  0  0  0  0  0  0  0  0  0  0  0
  1  2  2  0
  2  3  1  0
  3  4  1  0
  4  5  2  0
  5  6  1  0
  6  7  2  0
  7  8  1  0
  8  9  2  0
  9 10  1  0
 10 11  1  0
 11 12  1  0
 12 13  1  0
 13 14  1  0
 14 15  1  0
 15 16  1  0
 16 17  1  0
 17 18  2  0
 18 19  1  0
 19 20  2  0
 20 21  1  0
 21 22  2  0
 16 23  1  0
 23 24  2  0
 23 25  2  0
  2 26  1  0
 26 27  1  0
 27 28  1  0
 28 29  1  0
 29 30  1  0
 30 31  1  0
 31 32  2  0
 32 33  1  0
 33 34  2  0
 34 35  1  0
 35 36  1  0
 34 37  1  0
 37 38  2  0
 30 39  1  0
 11  3  2  0
 23 12  1  0
 39 26  1  0
 10  6  1  0
 22 17  1  0
 38 31  1  0
  4 40  1  0
  5 41  1  0
  9 42  1  0
 13 43  1  0
 13 44  1  0
 14 45  1  0
 14 46  1  0
 15 47  1  0
 15 48  1  0
 16 49  1  0
 18 50  1  0
 19 51  1  0
 20 52  1  0
 21 53  1  0
 22 54  1  0
 27 55  1  0
 27 56  1  0
 28 57  1  0
 28 58  1  0
 29 59  1  0
 29 60  1  0
 30 61  1  0
 32 62  1  0
 33 63  1  0
 35 64  1  0
 35 65  1  0
 36 66  1  0
 37 67  1  0
 38 68  1  0
 39 69  1  0
 39 70  1  0
M  END
>  <Energy>  (314) 
194.5931840584586

>  <compound_id>  (314) 
4050

>  <target_id>  (314) 
1

>  <reference_id>  (314) 
135

>  <inspiration_ids>  (314) 
[141, 135]

>  <energy_score>  (314) 
26.309081913720206

>  <distance_score>  (314) 
1.582837777133531

>  <path>  (314) 
/opt/xchem-fragalysis-2/maxwin/BulkDock/SCRATCH/505735/C4050-P135/C4050-P135.minimised.mol

>  <scratch_subdir>  (314) 
/opt/xchem-fragalysis-2/maxwin/BulkDock/SCRATCH/505735/C4050-P135

>  <fragmenstein_runtime>  (314) 
8.870039463043213

>  <fragmenstein_outcome>  (314) 
too moved

>  <fragmenstein_mode>  (314) 
expansion

>  <fragmenstein_error>  (314) 


$$$$
C4054-P141
     RDKit          3D

 74 78  0  0  0  0  0  0  0  0999 V2000
    2.6951   -0.6783   28.4892 C   0  0  0  0  0  0  0  0  0  0  0  0
    2.5978   -1.4768   29.7776 C   0  0  0  0  0  0  0  0  0  0  0  0
    1.5263   -0.9860   30.7621 C   0  0  0  0  0  0  0  0  0  0  0  0
    0.0648   -1.2820   30.3258 C   0  0  0  0  0  0  0  0  0  0  0  0
   -0.8990   -1.3330   31.5594 C   0  0  0  0  0  0  0  0  0  0  0  0
   -0.5435   -2.4395   32.4398 N   0  0  0  0  0  0  0  0  0  0  0  0
   -0.6733   -2.4328   33.8769 C   0  0  0  0  0  0  0  0  0  0  0  0
    0.1793   -3.6559   34.2740 C   0  0  0  0  0  0  0  0  0  0  0  0
    0.0431   -4.2381   35.6102 N   0  0  0  0  0  0  0  0  0  0  0  0
    0.1452   -3.2041   36.6269 N   0  0  0  0  0  0  0  0  0  0  0  0
   -0.1122   -3.7786   37.9637 C   0  0  0  0  0  0  0  0  0  0  0  0
    1.0321   -4.6228   38.4622 C   0  0  0  0  0  0  0  0  0  0  0  0
    0.9973   -6.0182   38.4007 C   0  0  0  0  0  0  0  0  0  0  0  0
    2.0831   -6.7610   38.8559 C   0  0  0  0  0  0  0  0  0  0  0  0
    3.1823   -6.0794   39.3480 C   0  0  0  0  0  0  0  0  0  0  0  0
    3.2630   -4.7326   39.4077 N   0  0  0  0  0  0  0  0  0  0  0  0
    2.1852   -4.0387   38.9777 C   0  0  0  0  0  0  0  0  0  0  0  0
    0.1068   -4.6328   32.9934 C   0  0  0  0  0  0  0  0  0  0  0  0
    1.5842   -4.6383   32.5263 C   0  0  0  0  0  0  0  0  0  0  0  0
    1.9856   -5.5071   31.3671 C   0  0  0  0  0  0  0  0  0  0  0  0
    0.9848   -5.7086   30.2604 C   0  0  0  0  0  0  0  0  0  0  0  0
   -0.0381   -6.7775   30.5885 C   0  0  0  0  0  0  0  0  0  0  0  0
   -0.5602   -6.8706   31.9787 C   0  0  0  0  0  0  0  0  0  0  0  0
   -1.2171   -7.9360   32.3874 N   0  0  0  0  0  0  0  0  0  0  0  0
   -1.5461   -7.7599   33.6935 N   0  0  0  0  0  0  0  0  0  0  0  0
   -1.0963   -6.5873   34.0646 C   0  0  0  0  0  0  0  0  0  0  0  0
   -0.4670   -5.9648   33.0294 N   0  0  0  0  0  0  0  0  0  0  0  0
   -0.7066   -3.7517   32.0438 C   0  0  0  0  0  0  0  0  0  0  0  0
   -1.3727   -4.0988   31.0835 O   0  0  0  0  0  0  0  0  0  0  0  0
   -0.4910   -0.3212   29.2933 C   0  0  0  0  0  0  0  0  0  0  0  0
   -1.3152   -0.8201   28.2783 C   0  0  0  0  0  0  0  0  0  0  0  0
   -1.9016    0.0416   27.3500 C   0  0  0  0  0  0  0  0  0  0  0  0
   -1.7086    1.4216   27.4260 C   0  0  0  0  0  0  0  0  0  0  0  0
   -2.4593    2.3614   26.5279 C   0  0  0  0  0  0  0  0  0  0  0  0
   -1.5475    3.0895   25.7176 O   0  0  0  0  0  0  0  0  0  0  0  0
   -0.8414    1.9160   28.4004 C   0  0  0  0  0  0  0  0  0  0  0  0
   -0.2461    1.0569   29.3283 C   0  0  0  0  0  0  0  0  0  0  0  0
    3.5654   -1.0065   27.9113 H   0  0  0  0  0  0  0  0  0  0  0  0
    2.8116    0.3903   28.6935 H   0  0  0  0  0  0  0  0  0  0  0  0
    1.8154   -0.8226   27.8586 H   0  0  0  0  0  0  0  0  0  0  0  0
    2.4328   -2.5347   29.5419 H   0  0  0  0  0  0  0  0  0  0  0  0
    3.5701   -1.4207   30.2829 H   0  0  0  0  0  0  0  0  0  0  0  0
    1.6855    0.0738   30.9845 H   0  0  0  0  0  0  0  0  0  0  0  0
    1.7272   -1.4996   31.7082 H   0  0  0  0  0  0  0  0  0  0  0  0
    0.0781   -2.2796   29.8673 H   0  0  0  0  0  0  0  0  0  0  0  0
   -0.8261   -0.3991   32.1290 H   0  0  0  0  0  0  0  0  0  0  0  0
   -1.9412   -1.4669   31.2458 H   0  0  0  0  0  0  0  0  0  0  0  0
   -0.2800   -1.4985   34.2885 H   0  0  0  0  0  0  0  0  0  0  0  0
   -1.7276   -2.5534   34.1470 H   0  0  0  0  0  0  0  0  0  0  0  0
    1.1985   -3.2351   34.2973 H   0  0  0  0  0  0  0  0  0  0  0  0
    0.7603   -4.9604   35.7492 H   0  0  0  0  0  0  0  0  0  0  0  0
    1.0652   -2.7530   36.6463 H   0  0  0  0  0  0  0  0  0  0  0  0
   -1.0496   -4.3501   37.9650 H   0  0  0  0  0  0  0  0  0  0  0  0
   -0.2716   -2.9523   38.6673 H   0  0  0  0  0  0  0  0  0  0  0  0
    0.1198   -6.5339   38.0163 H   0  0  0  0  0  0  0  0  0  0  0  0
    2.0632   -7.8465   38.8394 H   0  0  0  0  0  0  0  0  0  0  0  0
    4.0507   -6.6142   39.7224 H   0  0  0  0  0  0  0  0  0  0  0  0
    2.2826   -2.9593   39.0621 H   0  0  0  0  0  0  0  0  0  0  0  0
    2.2252   -4.9348   33.3705 H   0  0  0  0  0  0  0  0  0  0  0  0
    1.8976   -3.6198   32.2678 H   0  0  0  0  0  0  0  0  0  0  0  0
    2.9080   -5.0987   30.9386 H   0  0  0  0  0  0  0  0  0  0  0  0
    2.2252   -6.4694   31.8101 H   0  0  0  0  0  0  0  0  0  0  0  0
    0.5343   -4.7635   29.9538 H   0  0  0  0  0  0  0  0  0  0  0  0
    1.5338   -6.0443   29.3712 H   0  0  0  0  0  0  0  0  0  0  0  0
    0.4166   -7.7511   30.3624 H   0  0  0  0  0  0  0  0  0  0  0  0
   -0.8774   -6.7078   29.8971 H   0  0  0  0  0  0  0  0  0  0  0  0
   -1.2518   -6.1658   35.0455 H   0  0  0  0  0  0  0  0  0  0  0  0
   -1.5169   -1.8874   28.1903 H   0  0  0  0  0  0  0  0  0  0  0  0
   -2.5177   -0.3872   26.5642 H   0  0  0  0  0  0  0  0  0  0  0  0
   -3.1528    1.8241   25.8763 H   0  0  0  0  0  0  0  0  0  0  0  0
   -3.0385    3.0664   27.1323 H   0  0  0  0  0  0  0  0  0  0  0  0
   -2.0713    3.8106   25.3250 H   0  0  0  0  0  0  0  0  0  0  0  0
   -0.6576    2.9876   28.4620 H   0  0  0  0  0  0  0  0  0  0  0  0
    0.3882    1.5020   30.0885 H   0  0  0  0  0  0  0  0  0  0  0  0
  1  2  1  0
  2  3  1  0
  3  4  1  0
  4  5  1  0
  5  6  1  0
  6  7  1  0
  7  8  1  0
  8  9  1  0
  9 10  1  0
 10 11  1  0
 11 12  1  0
 12 13  2  0
 13 14  1  0
 14 15  2  0
 15 16  1  0
 16 17  2  0
  8 18  1  0
 18 19  1  0
 19 20  1  0
 20 21  1  0
 21 22  1  0
 22 23  1  0
 23 24  2  0
 24 25  1  0
 25 26  2  0
 26 27  1  0
 18 28  1  0
 28 29  2  0
  4 30  1  0
 30 31  2  0
 31 32  1  0
 32 33  2  0
 33 34  1  0
 34 35  1  0
 33 36  1  0
 36 37  2  0
 28  6  1  0
 37 30  1  0
 17 12  1  0
 27 18  1  0
 27 23  1  0
  1 38  1  0
  1 39  1  0
  1 40  1  0
  2 41  1  0
  2 42  1  0
  3 43  1  0
  3 44  1  0
  4 45  1  0
  5 46  1  0
  5 47  1  0
  7 48  1  0
  7 49  1  0
  8 50  1  0
  9 51  1  0
 10 52  1  0
 11 53  1  0
 11 54  1  0
 13 55  1  0
 14 56  1  0
 15 57  1  0
 17 58  1  0
 19 59  1  0
 19 60  1  0
 20 61  1  0
 20 62  1  0
 21 63  1  0
 21 64  1  0
 22 65  1  0
 22 66  1  0
 26 67  1  0
 31 68  1  0
 32 69  1  0
 34 70  1  0
 34 71  1  0
 35 72  1  0
 36 73  1  0
 37 74  1  0
M  END
>  <Energy>  (315) 
157.77676420912306

>  <compound_id>  (315) 
4054

>  <target_id>  (315) 
1

>  <reference_id>  (315) 
141

>  <inspiration_ids>  (315) 
[141, 145]

>  <energy_score>  (315) 
-66.75065340927154

>  <distance_score>  (315) 
1.2160659741468207

>  <path>  (315) 
/opt/xchem-fragalysis-2/maxwin/BulkDock/SCRATCH/505735/C4054-P141/C4054-P141.minimised.mol

>  <scratch_subdir>  (315) 
/opt/xchem-fragalysis-2/maxwin/BulkDock/SCRATCH/505735/C4054-P141

>  <fragmenstein_runtime>  (315) 
5.360586166381836

>  <fragmenstein_outcome>  (315) 
too moved

>  <fragmenstein_mode>  (315) 
expansion

>  <fragmenstein_error>  (315) 


$$$$
C4054-P145
     RDKit          3D

 74 78  0  0  0  0  0  0  0  0999 V2000
    2.7881   -0.2791   28.2122 C   0  0  0  0  0  0  0  0  0  0  0  0
    2.6396   -1.3843   29.2458 C   0  0  0  0  0  0  0  0  0  0  0  0
    1.8216   -1.0057   30.4921 C   0  0  0  0  0  0  0  0  0  0  0  0
    0.2845   -1.1478   30.3490 C   0  0  0  0  0  0  0  0  0  0  0  0
   -0.4370   -1.0692   31.7281 C   0  0  0  0  0  0  0  0  0  0  0  0
   -0.1452   -2.2359   32.5616 N   0  0  0  0  0  0  0  0  0  0  0  0
    0.6428   -2.1974   33.7693 C   0  0  0  0  0  0  0  0  0  0  0  0
    0.8191   -3.6842   34.2185 C   0  0  0  0  0  0  0  0  0  0  0  0
    0.4472   -3.9692   35.6133 N   0  0  0  0  0  0  0  0  0  0  0  0
    1.1147   -3.0295   36.5147 N   0  0  0  0  0  0  0  0  0  0  0  0
    0.8269   -3.3770   37.9223 C   0  0  0  0  0  0  0  0  0  0  0  0
    1.6412   -4.5530   38.3952 C   0  0  0  0  0  0  0  0  0  0  0  0
    1.1043   -5.8405   38.4678 C   0  0  0  0  0  0  0  0  0  0  0  0
    1.9082   -6.9035   38.8713 C   0  0  0  0  0  0  0  0  0  0  0  0
    3.2312   -6.6454   39.1850 C   0  0  0  0  0  0  0  0  0  0  0  0
    3.7892   -5.4175   39.1187 N   0  0  0  0  0  0  0  0  0  0  0  0
    2.9819   -4.4024   38.7393 C   0  0  0  0  0  0  0  0  0  0  0  0
    0.1450   -4.5047   33.0240 C   0  0  0  0  0  0  0  0  0  0  0  0
    1.3470   -4.7231   32.0553 C   0  0  0  0  0  0  0  0  0  0  0  0
    1.0933   -4.8101   30.5572 C   0  0  0  0  0  0  0  0  0  0  0  0
   -0.1935   -5.4452   30.1394 C   0  0  0  0  0  0  0  0  0  0  0  0
   -0.5437   -6.7456   30.8039 C   0  0  0  0  0  0  0  0  0  0  0  0
   -0.7467   -6.7731   32.2647 C   0  0  0  0  0  0  0  0  0  0  0  0
   -1.2343   -7.8453   32.8506 N   0  0  0  0  0  0  0  0  0  0  0  0
   -1.3906   -7.5757   34.1700 N   0  0  0  0  0  0  0  0  0  0  0  0
   -0.9829   -6.3472   34.3723 C   0  0  0  0  0  0  0  0  0  0  0  0
   -0.5076   -5.7967   33.2196 N   0  0  0  0  0  0  0  0  0  0  0  0
   -0.7804   -3.4511   32.4311 C   0  0  0  0  0  0  0  0  0  0  0  0
   -1.8290   -3.6257   31.8307 O   0  0  0  0  0  0  0  0  0  0  0  0
   -0.3106   -0.1679   29.3640 C   0  0  0  0  0  0  0  0  0  0  0  0
   -1.0786   -0.6565   28.3036 C   0  0  0  0  0  0  0  0  0  0  0  0
   -1.6442    0.2211   27.3828 C   0  0  0  0  0  0  0  0  0  0  0  0
   -1.4948    1.6011   27.5058 C   0  0  0  0  0  0  0  0  0  0  0  0
   -2.2449    2.5364   26.6006 C   0  0  0  0  0  0  0  0  0  0  0  0
   -1.3308    3.2634   25.7945 O   0  0  0  0  0  0  0  0  0  0  0  0
   -0.6779    2.0854   28.5275 C   0  0  0  0  0  0  0  0  0  0  0  0
   -0.1029    1.2133   29.4576 C   0  0  0  0  0  0  0  0  0  0  0  0
    3.5414   -0.5639   27.4699 H   0  0  0  0  0  0  0  0  0  0  0  0
    3.1115    0.6580   28.6756 H   0  0  0  0  0  0  0  0  0  0  0  0
    1.8584   -0.1009   27.6686 H   0  0  0  0  0  0  0  0  0  0  0  0
    2.2269   -2.2791   28.7675 H   0  0  0  0  0  0  0  0  0  0  0  0
    3.6493   -1.6516   29.5828 H   0  0  0  0  0  0  0  0  0  0  0  0
    2.0976   -0.0003   30.8314 H   0  0  0  0  0  0  0  0  0  0  0  0
    2.1528   -1.6852   31.2849 H   0  0  0  0  0  0  0  0  0  0  0  0
    0.0806   -2.1441   29.9491 H   0  0  0  0  0  0  0  0  0  0  0  0
   -0.1488   -0.1640   32.2747 H   0  0  0  0  0  0  0  0  0  0  0  0
   -1.5230   -1.0364   31.5767 H   0  0  0  0  0  0  0  0  0  0  0  0
    1.6081   -1.7222   33.5708 H   0  0  0  0  0  0  0  0  0  0  0  0
    0.0922   -1.5979   34.5021 H   0  0  0  0  0  0  0  0  0  0  0  0
    1.8997   -3.8912   34.2103 H   0  0  0  0  0  0  0  0  0  0  0  0
    0.7492   -4.9247   35.8412 H   0  0  0  0  0  0  0  0  0  0  0  0
    2.1331   -3.0158   36.3985 H   0  0  0  0  0  0  0  0  0  0  0  0
   -0.2460   -3.5557   38.0705 H   0  0  0  0  0  0  0  0  0  0  0  0
    1.0700   -2.5081   38.5462 H   0  0  0  0  0  0  0  0  0  0  0  0
    0.0594   -6.0213   38.2251 H   0  0  0  0  0  0  0  0  0  0  0  0
    1.5097   -7.9112   38.9480 H   0  0  0  0  0  0  0  0  0  0  0  0
    3.8942   -7.4424   39.5104 H   0  0  0  0  0  0  0  0  0  0  0  0
    3.4660   -3.4293   38.7143 H   0  0  0  0  0  0  0  0  0  0  0  0
    1.8206   -5.6360   32.4161 H   0  0  0  0  0  0  0  0  0  0  0  0
    2.1160   -3.9466   32.1649 H   0  0  0  0  0  0  0  0  0  0  0  0
    1.1285   -3.8070   30.1401 H   0  0  0  0  0  0  0  0  0  0  0  0
    1.9061   -5.3099   30.0297 H   0  0  0  0  0  0  0  0  0  0  0  0
   -0.9810   -4.7120   30.2359 H   0  0  0  0  0  0  0  0  0  0  0  0
   -0.1642   -5.6065   29.0662 H   0  0  0  0  0  0  0  0  0  0  0  0
    0.1570   -7.5253   30.5205 H   0  0  0  0  0  0  0  0  0  0  0  0
   -1.4816   -7.0908   30.3737 H   0  0  0  0  0  0  0  0  0  0  0  0
   -1.0673   -5.8351   35.3175 H   0  0  0  0  0  0  0  0  0  0  0  0
   -1.2480   -1.7230   28.1667 H   0  0  0  0  0  0  0  0  0  0  0  0
   -2.2261   -0.1918   26.5661 H   0  0  0  0  0  0  0  0  0  0  0  0
   -2.9339    1.9969   25.9431 H   0  0  0  0  0  0  0  0  0  0  0  0
   -2.8283    3.2417   27.1993 H   0  0  0  0  0  0  0  0  0  0  0  0
   -1.8385    4.0116   25.4334 H   0  0  0  0  0  0  0  0  0  0  0  0
   -0.5092    3.1573   28.6137 H   0  0  0  0  0  0  0  0  0  0  0  0
    0.5095    1.6338   30.2504 H   0  0  0  0  0  0  0  0  0  0  0  0
  1  2  1  0
  2  3  1  0
  3  4  1  0
  4  5  1  0
  5  6  1  0
  6  7  1  0
  7  8  1  0
  8  9  1  0
  9 10  1  0
 10 11  1  0
 11 12  1  0
 12 13  2  0
 13 14  1  0
 14 15  2  0
 15 16  1  0
 16 17  2  0
  8 18  1  0
 18 19  1  0
 19 20  1  0
 20 21  1  0
 21 22  1  0
 22 23  1  0
 23 24  2  0
 24 25  1  0
 25 26  2  0
 26 27  1  0
 18 28  1  0
 28 29  2  0
  4 30  1  0
 30 31  2  0
 31 32  1  0
 32 33  2  0
 33 34  1  0
 34 35  1  0
 33 36  1  0
 36 37  2  0
 28  6  1  0
 37 30  1  0
 17 12  1  0
 27 18  1  0
 27 23  1  0
  1 38  1  0
  1 39  1  0
  1 40  1  0
  2 41  1  0
  2 42  1  0
  3 43  1  0
  3 44  1  0
  4 45  1  0
  5 46  1  0
  5 47  1  0
  7 48  1  0
  7 49  1  0
  8 50  1  0
  9 51  1  0
 10 52  1  0
 11 53  1  0
 11 54  1  0
 13 55  1  0
 14 56  1  0
 15 57  1  0
 17 58  1  0
 19 59  1  0
 19 60  1  0
 20 61  1  0
 20 62  1  0
 21 63  1  0
 21 64  1  0
 22 65  1  0
 22 66  1  0
 26 67  1  0
 31 68  1  0
 32 69  1  0
 34 70  1  0
 34 71  1  0
 35 72  1  0
 36 73  1  0
 37 74  1  0
M  END
>  <Energy>  (316) 
162.55899443470409

>  <compound_id>  (316) 
4054

>  <target_id>  (316) 
1

>  <reference_id>  (316) 
145

>  <inspiration_ids>  (316) 
[141, 145]

>  <energy_score>  (316) 
-61.96842318369545

>  <distance_score>  (316) 
1.2996628341972636

>  <path>  (316) 
/opt/xchem-fragalysis-2/maxwin/BulkDock/SCRATCH/505735/C4054-P145/C4054-P145.minimised.mol

>  <scratch_subdir>  (316) 
/opt/xchem-fragalysis-2/maxwin/BulkDock/SCRATCH/505735/C4054-P145

>  <fragmenstein_runtime>  (316) 
6.608397960662842

>  <fragmenstein_outcome>  (316) 
too moved

>  <fragmenstein_mode>  (316) 
expansion

>  <fragmenstein_error>  (316) 


$$$$
C4055-P141
     RDKit          3D

 58 62  0  0  0  0  0  0  0  0999 V2000
    0.7384   -2.1372   33.4173 O   0  0  0  0  0  0  0  0  0  0  0  0
    1.8711   -2.3876   33.1032 C   0  0  0  0  0  0  0  0  0  0  0  0
    2.6225   -3.3140   34.0076 C   0  0  0  0  0  0  0  0  0  0  0  0
    2.4167   -4.7571   33.8722 C   0  0  0  0  0  0  0  0  0  0  0  0
    2.5735   -5.6051   34.9091 C   0  0  0  0  0  0  0  0  0  0  0  0
    2.0494   -7.2617   34.8140 S   0  0  0  0  0  0  0  0  0  0  0  0
    0.2198   -7.0731   34.9325 C   0  0  0  0  0  0  0  0  0  0  0  0
   -0.3255   -6.4378   33.6839 C   0  0  0  0  0  0  0  0  0  0  0  0
   -0.3589   -7.1298   32.4737 C   0  0  0  0  0  0  0  0  0  0  0  0
   -0.5962   -6.4221   31.3139 C   0  0  0  0  0  0  0  0  0  0  0  0
   -0.8569   -5.1002   31.2859 N   0  0  0  0  0  0  0  0  0  0  0  0
   -0.9177   -4.4660   32.4736 C   0  0  0  0  0  0  0  0  0  0  0  0
   -0.6631   -5.0853   33.6822 C   0  0  0  0  0  0  0  0  0  0  0  0
    3.1727   -5.1060   36.1062 C   0  0  0  0  0  0  0  0  0  0  0  0
    3.5410   -5.6635   37.2420 N   0  0  0  0  0  0  0  0  0  0  0  0
    4.0585   -4.6776   38.0538 N   0  0  0  0  0  0  0  0  0  0  0  0
    3.9886   -3.5404   37.4007 C   0  0  0  0  0  0  0  0  0  0  0  0
    3.4529   -3.7436   36.1607 N   0  0  0  0  0  0  0  0  0  0  0  0
    3.1477   -2.8382   35.1484 C   0  0  0  0  0  0  0  0  0  0  0  0
    2.6105   -2.0246   31.9498 N   0  0  0  0  0  0  0  0  0  0  0  0
    2.4561   -3.0986   30.8712 C   0  0  0  0  0  0  0  0  0  0  0  0
    2.8590   -3.0303   29.3920 C   0  0  0  0  0  0  0  0  0  0  0  0
    1.7512   -2.2663   28.6962 C   0  0  0  0  0  0  0  0  0  0  0  0
    1.0939   -1.3761   29.7569 C   0  0  0  0  0  0  0  0  0  0  0  0
    0.3563   -0.2387   29.0800 C   0  0  0  0  0  0  0  0  0  0  0  0
   -0.7793   -0.5674   28.3148 C   0  0  0  0  0  0  0  0  0  0  0  0
   -1.5180    0.4103   27.6500 C   0  0  0  0  0  0  0  0  0  0  0  0
   -1.1667    1.7555   27.7567 C   0  0  0  0  0  0  0  0  0  0  0  0
   -1.9907    2.8048   27.0640 C   0  0  0  0  0  0  0  0  0  0  0  0
   -1.4685    3.0246   25.7590 O   0  0  0  0  0  0  0  0  0  0  0  0
   -0.0272    2.0911   28.5010 C   0  0  0  0  0  0  0  0  0  0  0  0
    0.7290    1.1055   29.1557 C   0  0  0  0  0  0  0  0  0  0  0  0
    2.2481   -1.0987   30.7806 C   0  0  0  0  0  0  0  0  0  0  0  0
    2.0083   -5.1003   32.9279 H   0  0  0  0  0  0  0  0  0  0  0  0
   -0.0285   -6.4866   35.8243 H   0  0  0  0  0  0  0  0  0  0  0  0
   -0.2304   -8.0604   35.0703 H   0  0  0  0  0  0  0  0  0  0  0  0
   -0.1612   -8.1893   32.4219 H   0  0  0  0  0  0  0  0  0  0  0  0
   -0.5832   -6.9148   30.3465 H   0  0  0  0  0  0  0  0  0  0  0  0
   -1.1729   -3.4099   32.4324 H   0  0  0  0  0  0  0  0  0  0  0  0
   -0.6862   -4.4951   34.5945 H   0  0  0  0  0  0  0  0  0  0  0  0
    4.3014   -2.5739   37.7677 H   0  0  0  0  0  0  0  0  0  0  0  0
    3.2551   -1.7826   35.3667 H   0  0  0  0  0  0  0  0  0  0  0  0
    3.1315   -3.8770   31.2591 H   0  0  0  0  0  0  0  0  0  0  0  0
    1.4701   -3.5768   30.9776 H   0  0  0  0  0  0  0  0  0  0  0  0
    3.8380   -2.5548   29.2613 H   0  0  0  0  0  0  0  0  0  0  0  0
    2.9337   -4.0372   28.9650 H   0  0  0  0  0  0  0  0  0  0  0  0
    2.1734   -1.6887   27.8664 H   0  0  0  0  0  0  0  0  0  0  0  0
    1.0126   -2.9605   28.2805 H   0  0  0  0  0  0  0  0  0  0  0  0
    0.3099   -1.9309   30.2940 H   0  0  0  0  0  0  0  0  0  0  0  0
   -1.0970   -1.6048   28.2043 H   0  0  0  0  0  0  0  0  0  0  0  0
   -2.3628    0.1043   27.0360 H   0  0  0  0  0  0  0  0  0  0  0  0
   -1.9702    3.7474   27.6216 H   0  0  0  0  0  0  0  0  0  0  0  0
   -3.0350    2.4840   26.9800 H   0  0  0  0  0  0  0  0  0  0  0  0
   -2.1055    3.6220   25.3273 H   0  0  0  0  0  0  0  0  0  0  0  0
    0.2757    3.1340   28.5761 H   0  0  0  0  0  0  0  0  0  0  0  0
    1.6046    1.4191   29.7161 H   0  0  0  0  0  0  0  0  0  0  0  0
    3.1786   -0.7448   30.3085 H   0  0  0  0  0  0  0  0  0  0  0  0
    1.9111   -0.2152   31.3437 H   0  0  0  0  0  0  0  0  0  0  0  0
  1  2  2  0
  2  3  1  0
  3  4  1  0
  4  5  2  0
  5  6  1  0
  6  7  1  0
  7  8  1  0
  8  9  2  0
  9 10  1  0
 10 11  2  0
 11 12  1  0
 12 13  2  0
  5 14  1  0
 14 15  2  0
 15 16  1  0
 16 17  2  0
 17 18  1  0
 18 19  1  0
  2 20  1  0
 20 21  1  0
 21 22  1  0
 22 23  1  0
 23 24  1  0
 24 25  1  0
 25 26  2  0
 26 27  1  0
 27 28  2  0
 28 29  1  0
 29 30  1  0
 28 31  1  0
 31 32  2  0
 24 33  1  0
 19  3  2  0
 33 20  1  0
 13  8  1  0
 18 14  1  0
 32 25  1  0
  4 34  1  0
  7 35  1  0
  7 36  1  0
  9 37  1  0
 10 38  1  0
 12 39  1  0
 13 40  1  0
 17 41  1  0
 19 42  1  0
 21 43  1  0
 21 44  1  0
 22 45  1  0
 22 46  1  0
 23 47  1  0
 23 48  1  0
 24 49  1  0
 26 50  1  0
 27 51  1  0
 29 52  1  0
 29 53  1  0
 30 54  1  0
 31 55  1  0
 32 56  1  0
 33 57  1  0
 33 58  1  0
M  END
>  <Energy>  (317) 
168.6463830272059

>  <compound_id>  (317) 
4055

>  <target_id>  (317) 
1

>  <reference_id>  (317) 
141

>  <inspiration_ids>  (317) 
[141, 147]

>  <energy_score>  (317) 
36.10999067311445

>  <distance_score>  (317) 
2.425421718292255

>  <path>  (317) 
/opt/xchem-fragalysis-2/maxwin/BulkDock/SCRATCH/505735/C4055-P141/C4055-P141.minimised.mol

>  <scratch_subdir>  (317) 
/opt/xchem-fragalysis-2/maxwin/BulkDock/SCRATCH/505735/C4055-P141

>  <fragmenstein_runtime>  (317) 
11.70790719985962

>  <fragmenstein_outcome>  (317) 
too moved

>  <fragmenstein_mode>  (317) 
expansion

>  <fragmenstein_error>  (317) 


$$$$
C4055-P147
     RDKit          3D

 58 62  0  0  0  0  0  0  0  0999 V2000
    3.0911   -3.4971   31.4136 O   0  0  0  0  0  0  0  0  0  0  0  0
    2.6069   -3.1423   32.4563 C   0  0  0  0  0  0  0  0  0  0  0  0
    2.7131   -4.0537   33.6518 C   0  0  0  0  0  0  0  0  0  0  0  0
    1.4752   -4.5861   34.2157 C   0  0  0  0  0  0  0  0  0  0  0  0
    1.3863   -5.8502   34.6763 C   0  0  0  0  0  0  0  0  0  0  0  0
   -0.1531   -6.5807   35.0069 S   0  0  0  0  0  0  0  0  0  0  0  0
   -0.6654   -7.1014   33.3347 C   0  0  0  0  0  0  0  0  0  0  0  0
   -0.5673   -6.0333   32.2770 C   0  0  0  0  0  0  0  0  0  0  0  0
    0.1354   -6.2552   31.0959 C   0  0  0  0  0  0  0  0  0  0  0  0
    0.2829   -5.2049   30.2033 C   0  0  0  0  0  0  0  0  0  0  0  0
   -0.2874   -3.9951   30.3615 N   0  0  0  0  0  0  0  0  0  0  0  0
   -0.9912   -3.8044   31.4856 C   0  0  0  0  0  0  0  0  0  0  0  0
   -1.1335   -4.7719   32.4587 C   0  0  0  0  0  0  0  0  0  0  0  0
    2.5948   -6.5748   34.8843 C   0  0  0  0  0  0  0  0  0  0  0  0
    2.8673   -7.8122   35.2482 N   0  0  0  0  0  0  0  0  0  0  0  0
    4.2358   -7.9366   35.3319 N   0  0  0  0  0  0  0  0  0  0  0  0
    4.7693   -6.7856   34.9851 C   0  0  0  0  0  0  0  0  0  0  0  0
    3.7878   -5.9113   34.6069 N   0  0  0  0  0  0  0  0  0  0  0  0
    3.8621   -4.6972   33.9238 C   0  0  0  0  0  0  0  0  0  0  0  0
    1.8261   -1.9946   32.7728 N   0  0  0  0  0  0  0  0  0  0  0  0
    2.7308   -0.8522   33.2158 C   0  0  0  0  0  0  0  0  0  0  0  0
    3.8304   -0.3957   32.2262 C   0  0  0  0  0  0  0  0  0  0  0  0
    3.2100    0.2967   31.0231 C   0  0  0  0  0  0  0  0  0  0  0  0
    1.9961   -0.5134   30.5854 C   0  0  0  0  0  0  0  0  0  0  0  0
    1.0315    0.1626   29.6115 C   0  0  0  0  0  0  0  0  0  0  0  0
    0.1390   -0.6440   28.8806 C   0  0  0  0  0  0  0  0  0  0  0  0
   -0.8213   -0.0872   28.0273 C   0  0  0  0  0  0  0  0  0  0  0  0
   -0.9062    1.2966   27.8572 C   0  0  0  0  0  0  0  0  0  0  0  0
   -1.9651    1.8999   26.9729 C   0  0  0  0  0  0  0  0  0  0  0  0
   -1.3873    2.8514   26.0844 O   0  0  0  0  0  0  0  0  0  0  0  0
   -0.0144    2.1058   28.5705 C   0  0  0  0  0  0  0  0  0  0  0  0
    0.9395    1.5488   29.4356 C   0  0  0  0  0  0  0  0  0  0  0  0
    1.2554   -0.9090   31.8828 C   0  0  0  0  0  0  0  0  0  0  0  0
    0.6050   -3.9457   34.1298 H   0  0  0  0  0  0  0  0  0  0  0  0
   -0.0460   -7.9517   33.0496 H   0  0  0  0  0  0  0  0  0  0  0  0
   -1.6953   -7.4649   33.3859 H   0  0  0  0  0  0  0  0  0  0  0  0
    0.5877   -7.2136   30.8813 H   0  0  0  0  0  0  0  0  0  0  0  0
    0.8879   -5.3041   29.3098 H   0  0  0  0  0  0  0  0  0  0  0  0
   -1.4359   -2.8210   31.6017 H   0  0  0  0  0  0  0  0  0  0  0  0
   -1.6298   -4.5085   33.3812 H   0  0  0  0  0  0  0  0  0  0  0  0
    5.8245   -6.5579   34.9390 H   0  0  0  0  0  0  0  0  0  0  0  0
    4.8207   -4.4192   33.5025 H   0  0  0  0  0  0  0  0  0  0  0  0
    2.2037   -0.0188   33.7102 H   0  0  0  0  0  0  0  0  0  0  0  0
    3.2914   -1.2868   34.0589 H   0  0  0  0  0  0  0  0  0  0  0  0
    4.4317   -1.2497   31.8954 H   0  0  0  0  0  0  0  0  0  0  0  0
    4.5167    0.2930   32.7324 H   0  0  0  0  0  0  0  0  0  0  0  0
    2.9243    1.3062   31.3396 H   0  0  0  0  0  0  0  0  0  0  0  0
    3.9346    0.4080   30.2092 H   0  0  0  0  0  0  0  0  0  0  0  0
    2.3665   -1.4184   30.0861 H   0  0  0  0  0  0  0  0  0  0  0  0
    0.1757   -1.7296   28.9714 H   0  0  0  0  0  0  0  0  0  0  0  0
   -1.4920   -0.7534   27.4845 H   0  0  0  0  0  0  0  0  0  0  0  0
   -2.7140    2.4005   27.5926 H   0  0  0  0  0  0  0  0  0  0  0  0
   -2.4629    1.1358   26.3686 H   0  0  0  0  0  0  0  0  0  0  0  0
   -2.1358    3.3580   25.7210 H   0  0  0  0  0  0  0  0  0  0  0  0
   -0.0650    3.1878   28.4554 H   0  0  0  0  0  0  0  0  0  0  0  0
    1.5937    2.2361   29.9626 H   0  0  0  0  0  0  0  0  0  0  0  0
    0.7925   -0.0609   32.4190 H   0  0  0  0  0  0  0  0  0  0  0  0
    0.3525   -1.4226   31.5321 H   0  0  0  0  0  0  0  0  0  0  0  0
  1  2  2  0
  2  3  1  0
  3  4  1  0
  4  5  2  0
  5  6  1  0
  6  7  1  0
  7  8  1  0
  8  9  2  0
  9 10  1  0
 10 11  2  0
 11 12  1  0
 12 13  2  0
  5 14  1  0
 14 15  2  0
 15 16  1  0
 16 17  2  0
 17 18  1  0
 18 19  1  0
  2 20  1  0
 20 21  1  0
 21 22  1  0
 22 23  1  0
 23 24  1  0
 24 25  1  0
 25 26  2  0
 26 27  1  0
 27 28  2  0
 28 29  1  0
 29 30  1  0
 28 31  1  0
 31 32  2  0
 24 33  1  0
 19  3  2  0
 33 20  1  0
 13  8  1  0
 18 14  1  0
 32 25  1  0
  4 34  1  0
  7 35  1  0
  7 36  1  0
  9 37  1  0
 10 38  1  0
 12 39  1  0
 13 40  1  0
 17 41  1  0
 19 42  1  0
 21 43  1  0
 21 44  1  0
 22 45  1  0
 22 46  1  0
 23 47  1  0
 23 48  1  0
 24 49  1  0
 26 50  1  0
 27 51  1  0
 29 52  1  0
 29 53  1  0
 30 54  1  0
 31 55  1  0
 32 56  1  0
 33 57  1  0
 33 58  1  0
M  END
>  <Energy>  (318) 
156.16649278941784

>  <compound_id>  (318) 
4055

>  <target_id>  (318) 
1

>  <reference_id>  (318) 
147

>  <inspiration_ids>  (318) 
[141, 147]

>  <energy_score>  (318) 
23.63010043532188

>  <distance_score>  (318) 
2.5603549473379195

>  <path>  (318) 
/opt/xchem-fragalysis-2/maxwin/BulkDock/SCRATCH/505735/C4055-P147/C4055-P147.minimised.mol

>  <scratch_subdir>  (318) 
/opt/xchem-fragalysis-2/maxwin/BulkDock/SCRATCH/505735/C4055-P147

>  <fragmenstein_runtime>  (318) 
11.722435235977173

>  <fragmenstein_outcome>  (318) 
too moved

>  <fragmenstein_mode>  (318) 
expansion

>  <fragmenstein_error>  (318) 


$$$$
C4058-P141
     RDKit          3D

 49 53  0  0  0  0  0  0  0  0999 V2000
    0.2293   -3.8802   28.5524 O   0  0  0  0  0  0  0  0  0  0  0  0
   -0.9532   -3.2112   29.1836 S   0  0  0  0  0  0  0  0  0  0  0  0
   -0.9173   -3.2763   30.8632 N   0  0  0  0  0  0  0  0  0  0  0  0
    0.1493   -3.8378   31.7734 C   0  0  0  0  0  0  0  0  0  0  0  0
   -0.6221   -4.1489   33.1425 C   0  0  0  0  0  0  0  0  0  0  0  0
   -0.5456   -5.5954   33.6810 C   0  0  0  0  0  0  0  0  0  0  0  0
   -0.7397   -6.5445   32.5771 C   0  0  0  0  0  0  0  0  0  0  0  0
   -1.4531   -7.6396   32.4630 N   0  0  0  0  0  0  0  0  0  0  0  0
   -1.1914   -8.1691   31.2161 N   0  0  0  0  0  0  0  0  0  0  0  0
   -0.2942   -7.3988   30.6420 C   0  0  0  0  0  0  0  0  0  0  0  0
   -0.0743   -6.3178   31.4145 N   0  0  0  0  0  0  0  0  0  0  0  0
    0.7980   -5.1758   31.2470 C   0  0  0  0  0  0  0  0  0  0  0  0
    1.0977   -2.7617   32.2132 N   0  0  0  0  0  0  0  0  0  0  0  0
    2.5530   -2.9901   32.2840 C   0  0  0  0  0  0  0  0  0  0  0  0
    3.3859   -2.6560   31.0138 C   0  0  0  0  0  0  0  0  0  0  0  0
    2.9279   -1.3655   30.2803 C   0  0  0  0  0  0  0  0  0  0  0  0
    1.4165   -1.4726   30.2117 C   0  0  0  0  0  0  0  0  0  0  0  0
    0.8732   -1.4384   31.6421 C   0  0  0  0  0  0  0  0  0  0  0  0
    0.4862   -0.7192   29.3278 C   0  0  0  0  0  0  0  0  0  0  0  0
    0.6902    0.6134   28.9841 C   0  0  0  0  0  0  0  0  0  0  0  0
   -0.2442    1.3043   28.2088 C   0  0  0  0  0  0  0  0  0  0  0  0
   -1.3942    0.6797   27.7339 C   0  0  0  0  0  0  0  0  0  0  0  0
   -2.3955    1.4519   26.9051 C   0  0  0  0  0  0  0  0  0  0  0  0
   -1.7732    2.4795   26.1347 O   0  0  0  0  0  0  0  0  0  0  0  0
   -1.6002   -0.6682   28.0896 C   0  0  0  0  0  0  0  0  0  0  0  0
   -0.6855   -1.3757   28.8985 C   0  0  0  0  0  0  0  0  0  0  0  0
   -1.4511   -2.5675   31.3544 H   0  0  0  0  0  0  0  0  0  0  0  0
   -1.6766   -3.8907   33.0085 H   0  0  0  0  0  0  0  0  0  0  0  0
   -0.2947   -3.4802   33.9517 H   0  0  0  0  0  0  0  0  0  0  0  0
   -1.2640   -5.7643   34.4852 H   0  0  0  0  0  0  0  0  0  0  0  0
    0.4465   -5.7576   34.1214 H   0  0  0  0  0  0  0  0  0  0  0  0
    0.2157   -7.6064   29.7216 H   0  0  0  0  0  0  0  0  0  0  0  0
    1.1362   -5.1314   30.2127 H   0  0  0  0  0  0  0  0  0  0  0  0
    1.6820   -5.4451   31.8343 H   0  0  0  0  0  0  0  0  0  0  0  0
    2.8030   -3.9874   32.6562 H   0  0  0  0  0  0  0  0  0  0  0  0
    2.9261   -2.3255   33.0768 H   0  0  0  0  0  0  0  0  0  0  0  0
    4.4447   -2.5637   31.2814 H   0  0  0  0  0  0  0  0  0  0  0  0
    3.3108   -3.5023   30.3186 H   0  0  0  0  0  0  0  0  0  0  0  0
    3.3763   -1.3238   29.2816 H   0  0  0  0  0  0  0  0  0  0  0  0
    3.2484   -0.4706   30.8253 H   0  0  0  0  0  0  0  0  0  0  0  0
    1.3667   -2.4763   29.8022 H   0  0  0  0  0  0  0  0  0  0  0  0
    1.4064   -0.6808   32.2355 H   0  0  0  0  0  0  0  0  0  0  0  0
   -0.1692   -1.1145   31.7378 H   0  0  0  0  0  0  0  0  0  0  0  0
    1.5811    1.1396   29.3197 H   0  0  0  0  0  0  0  0  0  0  0  0
   -0.0542    2.3486   27.9619 H   0  0  0  0  0  0  0  0  0  0  0  0
   -2.9123    0.7833   26.2140 H   0  0  0  0  0  0  0  0  0  0  0  0
   -3.1254    1.9186   27.5695 H   0  0  0  0  0  0  0  0  0  0  0  0
   -2.4977    3.0554   25.8286 H   0  0  0  0  0  0  0  0  0  0  0  0
   -2.4586   -1.2016   27.6833 H   0  0  0  0  0  0  0  0  0  0  0  0
  1  2  2  0
  2  3  1  0
  3  4  1  0
  4  5  1  0
  5  6  1  0
  6  7  1  0
  7  8  2  0
  8  9  1  0
  9 10  2  0
 10 11  1  0
 11 12  1  0
  4 13  1  0
 13 14  1  0
 14 15  1  0
 15 16  1  0
 16 17  1  0
 17 18  1  0
 17 19  1  0
 19 20  2  0
 20 21  1  0
 21 22  2  0
 22 23  1  0
 23 24  1  0
 22 25  1  0
 25 26  2  0
 26  2  1  0
 12  4  1  0
 18 13  1  0
 26 19  1  0
 11  7  1  0
  3 27  1  0
  5 28  1  0
  5 29  1  0
  6 30  1  0
  6 31  1  0
 10 32  1  0
 12 33  1  0
 12 34  1  0
 14 35  1  0
 14 36  1  0
 15 37  1  0
 15 38  1  0
 16 39  1  0
 16 40  1  0
 17 41  1  0
 18 42  1  0
 18 43  1  0
 20 44  1  0
 21 45  1  0
 23 46  1  0
 23 47  1  0
 24 48  1  0
 25 49  1  0
M  END
>  <Energy>  (319) 
65.943190262387333

>  <compound_id>  (319) 
4058

>  <target_id>  (319) 
1

>  <reference_id>  (319) 
141

>  <inspiration_ids>  (319) 
[141, 159]

>  <energy_score>  (319) 
-93.04590730380869

>  <distance_score>  (319) 
1.6108701805861332

>  <path>  (319) 
/opt/xchem-fragalysis-2/maxwin/BulkDock/SCRATCH/505735/C4058-P141/C4058-P141.minimised.mol

>  <scratch_subdir>  (319) 
/opt/xchem-fragalysis-2/maxwin/BulkDock/SCRATCH/505735/C4058-P141

>  <fragmenstein_runtime>  (319) 
3.3756823539733887

>  <fragmenstein_outcome>  (319) 
too moved

>  <fragmenstein_mode>  (319) 
expansion

>  <fragmenstein_error>  (319) 


$$$$
C4058-P159
     RDKit          3D

 49 53  0  0  0  0  0  0  0  0999 V2000
   -2.3350   -2.6345   29.9608 O   0  0  0  0  0  0  0  0  0  0  0  0
   -1.9053   -1.5449   30.8811 S   0  0  0  0  0  0  0  0  0  0  0  0
   -0.8410   -2.0483   32.0388 N   0  0  0  0  0  0  0  0  0  0  0  0
   -0.0442   -3.3087   32.1701 C   0  0  0  0  0  0  0  0  0  0  0  0
   -0.2796   -3.7542   33.6616 C   0  0  0  0  0  0  0  0  0  0  0  0
    0.1215   -5.1968   34.0396 C   0  0  0  0  0  0  0  0  0  0  0  0
   -0.2622   -6.1859   33.0139 C   0  0  0  0  0  0  0  0  0  0  0  0
   -0.4890   -7.4779   33.1141 N   0  0  0  0  0  0  0  0  0  0  0  0
   -0.7745   -7.9563   31.8514 N   0  0  0  0  0  0  0  0  0  0  0  0
   -0.6735   -6.9499   31.0198 C   0  0  0  0  0  0  0  0  0  0  0  0
   -0.4019   -5.8188   31.7165 N   0  0  0  0  0  0  0  0  0  0  0  0
   -0.5685   -4.4623   31.2635 C   0  0  0  0  0  0  0  0  0  0  0  0
    1.3906   -2.9028   32.0495 N   0  0  0  0  0  0  0  0  0  0  0  0
    2.3638   -3.8597   31.4952 C   0  0  0  0  0  0  0  0  0  0  0  0
    2.5549   -3.8981   29.9492 C   0  0  0  0  0  0  0  0  0  0  0  0
    2.3614   -2.5515   29.2087 C   0  0  0  0  0  0  0  0  0  0  0  0
    1.1686   -1.8637   29.8559 C   0  0  0  0  0  0  0  0  0  0  0  0
    1.5805   -1.6360   31.3168 C   0  0  0  0  0  0  0  0  0  0  0  0
    0.4193   -0.6932   29.3156 C   0  0  0  0  0  0  0  0  0  0  0  0
    0.9461    0.1163   28.3074 C   0  0  0  0  0  0  0  0  0  0  0  0
    0.1914    1.1489   27.7336 C   0  0  0  0  0  0  0  0  0  0  0  0
   -1.1136    1.3961   28.1291 C   0  0  0  0  0  0  0  0  0  0  0  0
   -1.9853    2.4512   27.4871 C   0  0  0  0  0  0  0  0  0  0  0  0
   -1.4959    2.8536   26.2114 O   0  0  0  0  0  0  0  0  0  0  0  0
   -1.6039    0.6266   29.1880 C   0  0  0  0  0  0  0  0  0  0  0  0
   -0.8849   -0.4315   29.7832 C   0  0  0  0  0  0  0  0  0  0  0  0
   -0.6322   -1.4309   32.8172 H   0  0  0  0  0  0  0  0  0  0  0  0
   -1.3466   -3.6451   33.8798 H   0  0  0  0  0  0  0  0  0  0  0  0
    0.2198   -3.0615   34.3541 H   0  0  0  0  0  0  0  0  0  0  0  0
   -0.3339   -5.4581   35.0015 H   0  0  0  0  0  0  0  0  0  0  0  0
    1.2079   -5.2414   34.1798 H   0  0  0  0  0  0  0  0  0  0  0  0
   -0.8419   -6.9840   29.9564 H   0  0  0  0  0  0  0  0  0  0  0  0
   -1.6498   -4.3615   31.2552 H   0  0  0  0  0  0  0  0  0  0  0  0
   -0.2363   -4.4194   30.2269 H   0  0  0  0  0  0  0  0  0  0  0  0
    2.1833   -4.8695   31.8730 H   0  0  0  0  0  0  0  0  0  0  0  0
    3.3395   -3.5851   31.9201 H   0  0  0  0  0  0  0  0  0  0  0  0
    3.5498   -4.2958   29.7164 H   0  0  0  0  0  0  0  0  0  0  0  0
    1.8418   -4.6189   29.5318 H   0  0  0  0  0  0  0  0  0  0  0  0
    2.1895   -2.7404   28.1447 H   0  0  0  0  0  0  0  0  0  0  0  0
    3.2672   -1.9381   29.2817 H   0  0  0  0  0  0  0  0  0  0  0  0
    0.4045   -2.6311   29.7445 H   0  0  0  0  0  0  0  0  0  0  0  0
    2.6369   -1.3330   31.3821 H   0  0  0  0  0  0  0  0  0  0  0  0
    1.0869   -0.7870   31.8049 H   0  0  0  0  0  0  0  0  0  0  0  0
    1.9508   -0.0563   27.9275 H   0  0  0  0  0  0  0  0  0  0  0  0
    0.6394    1.7651   26.9580 H   0  0  0  0  0  0  0  0  0  0  0  0
   -2.9986    2.0646   27.3480 H   0  0  0  0  0  0  0  0  0  0  0  0
   -2.0201    3.3330   28.1345 H   0  0  0  0  0  0  0  0  0  0  0  0
   -2.1441    3.5010   25.8792 H   0  0  0  0  0  0  0  0  0  0  0  0
   -2.6060    0.8326   29.5294 H   0  0  0  0  0  0  0  0  0  0  0  0
  1  2  2  0
  2  3  1  0
  3  4  1  0
  4  5  1  0
  5  6  1  0
  6  7  1  0
  7  8  2  0
  8  9  1  0
  9 10  2  0
 10 11  1  0
 11 12  1  0
  4 13  1  0
 13 14  1  0
 14 15  1  0
 15 16  1  0
 16 17  1  0
 17 18  1  0
 17 19  1  0
 19 20  2  0
 20 21  1  0
 21 22  2  0
 22 23  1  0
 23 24  1  0
 22 25  1  0
 25 26  2  0
 26  2  1  0
 12  4  1  0
 18 13  1  0
 26 19  1  0
 11  7  1  0
  3 27  1  0
  5 28  1  0
  5 29  1  0
  6 30  1  0
  6 31  1  0
 10 32  1  0
 12 33  1  0
 12 34  1  0
 14 35  1  0
 14 36  1  0
 15 37  1  0
 15 38  1  0
 16 39  1  0
 16 40  1  0
 17 41  1  0
 18 42  1  0
 18 43  1  0
 20 44  1  0
 21 45  1  0
 23 46  1  0
 23 47  1  0
 24 48  1  0
 25 49  1  0
M  END
>  <Energy>  (320) 
61.358902734898635

>  <compound_id>  (320) 
4058

>  <target_id>  (320) 
1

>  <reference_id>  (320) 
159

>  <inspiration_ids>  (320) 
[141, 159]

>  <energy_score>  (320) 
-97.63019483129949

>  <distance_score>  (320) 
1.908216562746589

>  <path>  (320) 
/opt/xchem-fragalysis-2/maxwin/BulkDock/SCRATCH/505735/C4058-P159/C4058-P159.minimised.mol

>  <scratch_subdir>  (320) 
/opt/xchem-fragalysis-2/maxwin/BulkDock/SCRATCH/505735/C4058-P159

>  <fragmenstein_runtime>  (320) 
3.3058104515075684

>  <fragmenstein_outcome>  (320) 
too moved

>  <fragmenstein_mode>  (320) 
expansion

>  <fragmenstein_error>  (320) 


$$$$
C4058-P141
     RDKit          3D

 49 53  0  0  0  0  0  0  0  0999 V2000
   -0.2593   -4.0088   28.8961 O   0  0  0  0  0  0  0  0  0  0  0  0
   -1.2219   -3.1480   29.6520 S   0  0  0  0  0  0  0  0  0  0  0  0
   -0.9750   -3.2267   31.3192 N   0  0  0  0  0  0  0  0  0  0  0  0
    0.1753   -3.8449   32.0921 C   0  0  0  0  0  0  0  0  0  0  0  0
   -0.3906   -4.2119   33.5596 C   0  0  0  0  0  0  0  0  0  0  0  0
   -0.4738   -5.7000   33.9771 C   0  0  0  0  0  0  0  0  0  0  0  0
   -0.7552   -6.5668   32.8229 C   0  0  0  0  0  0  0  0  0  0  0  0
   -1.4670   -7.6634   32.7014 N   0  0  0  0  0  0  0  0  0  0  0  0
   -1.3268   -8.1020   31.3988 N   0  0  0  0  0  0  0  0  0  0  0  0
   -0.5045   -7.2775   30.7898 C   0  0  0  0  0  0  0  0  0  0  0  0
   -0.1670   -6.2816   31.6318 N   0  0  0  0  0  0  0  0  0  0  0  0
    0.7389   -5.1686   31.4673 C   0  0  0  0  0  0  0  0  0  0  0  0
    1.1837   -2.7782   32.4140 N   0  0  0  0  0  0  0  0  0  0  0  0
    2.6288   -3.0820   32.4047 C   0  0  0  0  0  0  0  0  0  0  0  0
    3.3815   -2.8949   31.0562 C   0  0  0  0  0  0  0  0  0  0  0  0
    2.9453   -1.6392   30.2570 C   0  0  0  0  0  0  0  0  0  0  0  0
    1.4283   -1.6505   30.2958 C   0  0  0  0  0  0  0  0  0  0  0  0
    0.9980   -1.4888   31.7558 C   0  0  0  0  0  0  0  0  0  0  0  0
    0.5043   -0.8537   29.4451 C   0  0  0  0  0  0  0  0  0  0  0  0
    0.8308    0.4030   28.9401 C   0  0  0  0  0  0  0  0  0  0  0  0
   -0.0809    1.1296   28.1679 C   0  0  0  0  0  0  0  0  0  0  0  0
   -1.3299    0.6093   27.8475 C   0  0  0  0  0  0  0  0  0  0  0  0
   -2.3123    1.3981   27.0071 C   0  0  0  0  0  0  0  0  0  0  0  0
   -1.6872    2.4421   26.2607 O   0  0  0  0  0  0  0  0  0  0  0  0
   -1.6491   -0.6661   28.3584 C   0  0  0  0  0  0  0  0  0  0  0  0
   -0.7680   -1.3954   29.1890 C   0  0  0  0  0  0  0  0  0  0  0  0
   -1.4094   -2.5061   31.8866 H   0  0  0  0  0  0  0  0  0  0  0  0
   -1.3807   -3.7573   33.6646 H   0  0  0  0  0  0  0  0  0  0  0  0
    0.1992   -3.7065   34.3387 H   0  0  0  0  0  0  0  0  0  0  0  0
   -1.2106   -5.8394   34.7729 H   0  0  0  0  0  0  0  0  0  0  0  0
    0.4937   -5.9976   34.4017 H   0  0  0  0  0  0  0  0  0  0  0  0
   -0.1415   -7.3715   29.7843 H   0  0  0  0  0  0  0  0  0  0  0  0
    1.6453   -5.4963   31.9886 H   0  0  0  0  0  0  0  0  0  0  0  0
    1.0219   -5.0824   30.4188 H   0  0  0  0  0  0  0  0  0  0  0  0
    2.8455   -4.0647   32.8348 H   0  0  0  0  0  0  0  0  0  0  0  0
    3.0934   -2.3843   33.1164 H   0  0  0  0  0  0  0  0  0  0  0  0
    4.4607   -2.8487   31.2421 H   0  0  0  0  0  0  0  0  0  0  0  0
    3.2099   -3.7834   30.4354 H   0  0  0  0  0  0  0  0  0  0  0  0
    3.3231   -1.6992   29.2303 H   0  0  0  0  0  0  0  0  0  0  0  0
    3.3567   -0.7287   30.7071 H   0  0  0  0  0  0  0  0  0  0  0  0
    1.2652   -2.6675   29.9416 H   0  0  0  0  0  0  0  0  0  0  0  0
    1.6171   -0.7265   32.2526 H   0  0  0  0  0  0  0  0  0  0  0  0
   -0.0112   -1.0881   31.9035 H   0  0  0  0  0  0  0  0  0  0  0  0
    1.8058    0.8417   29.1416 H   0  0  0  0  0  0  0  0  0  0  0  0
    0.2107    2.1120   27.7979 H   0  0  0  0  0  0  0  0  0  0  0  0
   -2.8142    0.7360   26.2977 H   0  0  0  0  0  0  0  0  0  0  0  0
   -3.0525    1.8560   27.6661 H   0  0  0  0  0  0  0  0  0  0  0  0
   -2.4089    3.0318   25.9749 H   0  0  0  0  0  0  0  0  0  0  0  0
   -2.5777   -1.1406   28.0478 H   0  0  0  0  0  0  0  0  0  0  0  0
  1  2  2  0
  2  3  1  0
  3  4  1  0
  4  5  1  0
  5  6  1  0
  6  7  1  0
  7  8  2  0
  8  9  1  0
  9 10  2  0
 10 11  1  0
 11 12  1  0
  4 13  1  0
 13 14  1  0
 14 15  1  0
 15 16  1  0
 16 17  1  0
 17 18  1  0
 17 19  1  0
 19 20  2  0
 20 21  1  0
 21 22  2  0
 22 23  1  0
 23 24  1  0
 22 25  1  0
 25 26  2  0
 26  2  1  0
 12  4  1  0
 18 13  1  0
 26 19  1  0
 11  7  1  0
  3 27  1  0
  5 28  1  0
  5 29  1  0
  6 30  1  0
  6 31  1  0
 10 32  1  0
 12 33  1  0
 12 34  1  0
 14 35  1  0
 14 36  1  0
 15 37  1  0
 15 38  1  0
 16 39  1  0
 16 40  1  0
 17 41  1  0
 18 42  1  0
 18 43  1  0
 20 44  1  0
 21 45  1  0
 23 46  1  0
 23 47  1  0
 24 48  1  0
 25 49  1  0
M  END
>  <Energy>  (321) 
65.624589069469749

>  <compound_id>  (321) 
4058

>  <target_id>  (321) 
1

>  <reference_id>  (321) 
141

>  <inspiration_ids>  (321) 
[141, 162]

>  <energy_score>  (321) 
-81.57412427982604

>  <distance_score>  (321) 
1.7304699655257367

>  <path>  (321) 
/opt/xchem-fragalysis-2/maxwin/BulkDock/SCRATCH/505735/C4058-P141/C4058-P141.minimised.mol

>  <scratch_subdir>  (321) 
/opt/xchem-fragalysis-2/maxwin/BulkDock/SCRATCH/505735/C4058-P141

>  <fragmenstein_runtime>  (321) 
3.859764337539673

>  <fragmenstein_outcome>  (321) 
too moved

>  <fragmenstein_mode>  (321) 
expansion

>  <fragmenstein_error>  (321) 


$$$$
C4058-P162
     RDKit          3D

 49 53  0  0  0  0  0  0  0  0999 V2000
   -2.9868   -2.3404   31.0423 O   0  0  0  0  0  0  0  0  0  0  0  0
   -1.6240   -2.7969   30.6140 S   0  0  0  0  0  0  0  0  0  0  0  0
   -0.6909   -3.1076   31.9708 N   0  0  0  0  0  0  0  0  0  0  0  0
    0.5017   -3.9834   32.1826 C   0  0  0  0  0  0  0  0  0  0  0  0
    0.5749   -4.5356   33.6761 C   0  0  0  0  0  0  0  0  0  0  0  0
   -0.3056   -5.7222   34.0834 C   0  0  0  0  0  0  0  0  0  0  0  0
   -0.6381   -6.6186   32.9647 C   0  0  0  0  0  0  0  0  0  0  0  0
   -1.2975   -7.7568   32.9856 N   0  0  0  0  0  0  0  0  0  0  0  0
   -1.3137   -8.2622   31.7063 N   0  0  0  0  0  0  0  0  0  0  0  0
   -0.6364   -7.4329   30.9527 C   0  0  0  0  0  0  0  0  0  0  0  0
   -0.2578   -6.3592   31.6870 N   0  0  0  0  0  0  0  0  0  0  0  0
    0.5502   -5.2441   31.2546 C   0  0  0  0  0  0  0  0  0  0  0  0
    1.7066   -3.0865   32.1597 N   0  0  0  0  0  0  0  0  0  0  0  0
    3.0220   -3.6204   31.7661 C   0  0  0  0  0  0  0  0  0  0  0  0
    3.3529   -3.6064   30.2494 C   0  0  0  0  0  0  0  0  0  0  0  0
    2.8479   -2.3577   29.4972 C   0  0  0  0  0  0  0  0  0  0  0  0
    1.4292   -2.1090   29.9869 C   0  0  0  0  0  0  0  0  0  0  0  0
    1.5223   -1.8062   31.4838 C   0  0  0  0  0  0  0  0  0  0  0  0
    0.4745   -1.1587   29.3735 C   0  0  0  0  0  0  0  0  0  0  0  0
    0.8936   -0.1703   28.4769 C   0  0  0  0  0  0  0  0  0  0  0  0
   -0.0185    0.6883   27.8661 C   0  0  0  0  0  0  0  0  0  0  0  0
   -1.3757    0.5873   28.1308 C   0  0  0  0  0  0  0  0  0  0  0  0
   -2.3751    1.4429   27.3797 C   0  0  0  0  0  0  0  0  0  0  0  0
   -1.7726    2.5286   26.6725 O   0  0  0  0  0  0  0  0  0  0  0  0
   -1.7828   -0.4047   29.0549 C   0  0  0  0  0  0  0  0  0  0  0  0
   -0.8857   -1.2919   29.6984 C   0  0  0  0  0  0  0  0  0  0  0  0
   -1.1319   -2.8914   32.8629 H   0  0  0  0  0  0  0  0  0  0  0  0
    0.4126   -3.7145   34.3893 H   0  0  0  0  0  0  0  0  0  0  0  0
    1.6079   -4.8667   33.8647 H   0  0  0  0  0  0  0  0  0  0  0  0
   -1.1988   -5.3495   34.5664 H   0  0  0  0  0  0  0  0  0  0  0  0
    0.2166   -6.2992   34.8572 H   0  0  0  0  0  0  0  0  0  0  0  0
   -0.4111   -7.5769   29.9120 H   0  0  0  0  0  0  0  0  0  0  0  0
    1.5596   -5.6648   31.2127 H   0  0  0  0  0  0  0  0  0  0  0  0
    0.2625   -5.0139   30.2244 H   0  0  0  0  0  0  0  0  0  0  0  0
    3.1943   -4.6194   32.1811 H   0  0  0  0  0  0  0  0  0  0  0  0
    3.7773   -2.9936   32.2607 H   0  0  0  0  0  0  0  0  0  0  0  0
    4.4360   -3.7018   30.1104 H   0  0  0  0  0  0  0  0  0  0  0  0
    2.9055   -4.4910   29.7803 H   0  0  0  0  0  0  0  0  0  0  0  0
    2.8737   -2.5395   28.4167 H   0  0  0  0  0  0  0  0  0  0  0  0
    3.4996   -1.4991   29.6971 H   0  0  0  0  0  0  0  0  0  0  0  0
    0.9519   -3.0697   29.7741 H   0  0  0  0  0  0  0  0  0  0  0  0
    2.3778   -1.1456   31.6916 H   0  0  0  0  0  0  0  0  0  0  0  0
    0.6904   -1.2312   31.9078 H   0  0  0  0  0  0  0  0  0  0  0  0
    1.9455   -0.0635   28.2206 H   0  0  0  0  0  0  0  0  0  0  0  0
    0.3484    1.4321   27.1620 H   0  0  0  0  0  0  0  0  0  0  0  0
   -2.9027    0.8244   26.6508 H   0  0  0  0  0  0  0  0  0  0  0  0
   -3.0840    1.8659   28.0903 H   0  0  0  0  0  0  0  0  0  0  0  0
   -2.5082    3.1287   26.4490 H   0  0  0  0  0  0  0  0  0  0  0  0
   -2.8375   -0.5583   29.2387 H   0  0  0  0  0  0  0  0  0  0  0  0
  1  2  2  0
  2  3  1  0
  3  4  1  0
  4  5  1  0
  5  6  1  0
  6  7  1  0
  7  8  2  0
  8  9  1  0
  9 10  2  0
 10 11  1  0
 11 12  1  0
  4 13  1  0
 13 14  1  0
 14 15  1  0
 15 16  1  0
 16 17  1  0
 17 18  1  0
 17 19  1  0
 19 20  2  0
 20 21  1  0
 21 22  2  0
 22 23  1  0
 23 24  1  0
 22 25  1  0
 25 26  2  0
 26  2  1  0
 12  4  1  0
 18 13  1  0
 26 19  1  0
 11  7  1  0
  3 27  1  0
  5 28  1  0
  5 29  1  0
  6 30  1  0
  6 31  1  0
 10 32  1  0
 12 33  1  0
 12 34  1  0
 14 35  1  0
 14 36  1  0
 15 37  1  0
 15 38  1  0
 16 39  1  0
 16 40  1  0
 17 41  1  0
 18 42  1  0
 18 43  1  0
 20 44  1  0
 21 45  1  0
 23 46  1  0
 23 47  1  0
 24 48  1  0
 25 49  1  0
M  END
>  <Energy>  (322) 
64.469133649360529

>  <compound_id>  (322) 
4058

>  <target_id>  (322) 
1

>  <reference_id>  (322) 
162

>  <inspiration_ids>  (322) 
[141, 162]

>  <energy_score>  (322) 
-82.72957969993655

>  <distance_score>  (322) 
1.769955895579411

>  <path>  (322) 
/opt/xchem-fragalysis-2/maxwin/BulkDock/SCRATCH/505735/C4058-P162/C4058-P162.minimised.mol

>  <scratch_subdir>  (322) 
/opt/xchem-fragalysis-2/maxwin/BulkDock/SCRATCH/505735/C4058-P162

>  <fragmenstein_runtime>  (322) 
3.5159060955047607

>  <fragmenstein_outcome>  (322) 
too moved

>  <fragmenstein_mode>  (322) 
expansion

>  <fragmenstein_error>  (322) 


$$$$
C4058-P141
     RDKit          3D

 49 53  0  0  0  0  0  0  0  0999 V2000
   -2.9898   -2.3161   31.3119 O   0  0  0  0  0  0  0  0  0  0  0  0
   -1.5219   -2.1428   31.5269 S   0  0  0  0  0  0  0  0  0  0  0  0
   -0.6983   -3.6012   31.3487 N   0  0  0  0  0  0  0  0  0  0  0  0
    0.3886   -4.1545   32.2535 C   0  0  0  0  0  0  0  0  0  0  0  0
   -0.1729   -4.4588   33.7126 C   0  0  0  0  0  0  0  0  0  0  0  0
   -0.5103   -5.9257   34.0927 C   0  0  0  0  0  0  0  0  0  0  0  0
   -0.8291   -6.7603   32.9189 C   0  0  0  0  0  0  0  0  0  0  0  0
   -1.6376   -7.7822   32.7613 N   0  0  0  0  0  0  0  0  0  0  0  0
   -1.4941   -8.2352   31.4625 N   0  0  0  0  0  0  0  0  0  0  0  0
   -0.5706   -7.5026   30.8874 C   0  0  0  0  0  0  0  0  0  0  0  0
   -0.1692   -6.5527   31.7535 N   0  0  0  0  0  0  0  0  0  0  0  0
    0.8212   -5.5211   31.6016 C   0  0  0  0  0  0  0  0  0  0  0  0
    1.5671   -3.2184   32.4032 N   0  0  0  0  0  0  0  0  0  0  0  0
    2.9417   -3.6743   32.0986 C   0  0  0  0  0  0  0  0  0  0  0  0
    3.3794   -3.6219   30.6056 C   0  0  0  0  0  0  0  0  0  0  0  0
    2.8844   -2.3811   29.8232 C   0  0  0  0  0  0  0  0  0  0  0  0
    1.4312   -2.1543   30.2285 C   0  0  0  0  0  0  0  0  0  0  0  0
    1.4569   -1.9145   31.7517 C   0  0  0  0  0  0  0  0  0  0  0  0
    0.4847   -1.2172   29.5626 C   0  0  0  0  0  0  0  0  0  0  0  0
    0.8970   -0.4252   28.4873 C   0  0  0  0  0  0  0  0  0  0  0  0
    0.0203    0.4556   27.8591 C   0  0  0  0  0  0  0  0  0  0  0  0
   -1.2987    0.5723   28.2680 C   0  0  0  0  0  0  0  0  0  0  0  0
   -2.2402    1.5019   27.5272 C   0  0  0  0  0  0  0  0  0  0  0  0
   -1.5694    2.4630   26.7087 O   0  0  0  0  0  0  0  0  0  0  0  0
   -1.7120   -0.2334   29.3573 C   0  0  0  0  0  0  0  0  0  0  0  0
   -0.8597   -1.1670   29.9923 C   0  0  0  0  0  0  0  0  0  0  0  0
   -1.3574   -4.3509   31.1656 H   0  0  0  0  0  0  0  0  0  0  0  0
   -1.0591   -3.8381   33.8881 H   0  0  0  0  0  0  0  0  0  0  0  0
    0.5444   -4.0980   34.4639 H   0  0  0  0  0  0  0  0  0  0  0  0
   -1.3103   -5.9577   34.8368 H   0  0  0  0  0  0  0  0  0  0  0  0
    0.3704   -6.3630   34.5818 H   0  0  0  0  0  0  0  0  0  0  0  0
   -0.1843   -7.6376   29.8915 H   0  0  0  0  0  0  0  0  0  0  0  0
    1.7108   -5.9451   32.0761 H   0  0  0  0  0  0  0  0  0  0  0  0
    1.0224   -5.4117   30.5306 H   0  0  0  0  0  0  0  0  0  0  0  0
    3.1619   -4.6522   32.5366 H   0  0  0  0  0  0  0  0  0  0  0  0
    3.6236   -3.0068   32.6465 H   0  0  0  0  0  0  0  0  0  0  0  0
    4.4732   -3.6695   30.5474 H   0  0  0  0  0  0  0  0  0  0  0  0
    3.0103   -4.5187   30.0957 H   0  0  0  0  0  0  0  0  0  0  0  0
    2.9803   -2.5666   28.7472 H   0  0  0  0  0  0  0  0  0  0  0  0
    3.5039   -1.5070   30.0562 H   0  0  0  0  0  0  0  0  0  0  0  0
    0.9955   -3.1171   29.9384 H   0  0  0  0  0  0  0  0  0  0  0  0
    2.3250   -1.2868   32.0113 H   0  0  0  0  0  0  0  0  0  0  0  0
    0.6653   -1.3110   32.1946 H   0  0  0  0  0  0  0  0  0  0  0  0
    1.9208   -0.4653   28.1230 H   0  0  0  0  0  0  0  0  0  0  0  0
    0.3926    1.0782   27.0512 H   0  0  0  0  0  0  0  0  0  0  0  0
   -2.9034    0.9186   26.8831 H   0  0  0  0  0  0  0  0  0  0  0  0
   -2.8168    2.0575   28.2602 H   0  0  0  0  0  0  0  0  0  0  0  0
   -2.2459    3.1270   26.4810 H   0  0  0  0  0  0  0  0  0  0  0  0
   -2.7174   -0.1414   29.7460 H   0  0  0  0  0  0  0  0  0  0  0  0
  1  2  2  0
  2  3  1  0
  3  4  1  0
  4  5  1  0
  5  6  1  0
  6  7  1  0
  7  8  2  0
  8  9  1  0
  9 10  2  0
 10 11  1  0
 11 12  1  0
  4 13  1  0
 13 14  1  0
 14 15  1  0
 15 16  1  0
 16 17  1  0
 17 18  1  0
 17 19  1  0
 19 20  2  0
 20 21  1  0
 21 22  2  0
 22 23  1  0
 23 24  1  0
 22 25  1  0
 25 26  2  0
 26  2  1  0
 12  4  1  0
 18 13  1  0
 26 19  1  0
 11  7  1  0
  3 27  1  0
  5 28  1  0
  5 29  1  0
  6 30  1  0
  6 31  1  0
 10 32  1  0
 12 33  1  0
 12 34  1  0
 14 35  1  0
 14 36  1  0
 15 37  1  0
 15 38  1  0
 16 39  1  0
 16 40  1  0
 17 41  1  0
 18 42  1  0
 18 43  1  0
 20 44  1  0
 21 45  1  0
 23 46  1  0
 23 47  1  0
 24 48  1  0
 25 49  1  0
M  END
>  <Energy>  (323) 
69.592344621501553

>  <compound_id>  (323) 
4058

>  <target_id>  (323) 
1

>  <reference_id>  (323) 
141

>  <inspiration_ids>  (323) 
[141, 163]

>  <energy_score>  (323) 
-77.60636872779497

>  <distance_score>  (323) 
1.7741937149835794

>  <path>  (323) 
/opt/xchem-fragalysis-2/maxwin/BulkDock/SCRATCH/505735/C4058-P141/C4058-P141.minimised.mol

>  <scratch_subdir>  (323) 
/opt/xchem-fragalysis-2/maxwin/BulkDock/SCRATCH/505735/C4058-P141

>  <fragmenstein_runtime>  (323) 
3.9490714073181152

>  <fragmenstein_outcome>  (323) 
too moved

>  <fragmenstein_mode>  (323) 
expansion

>  <fragmenstein_error>  (323) 


$$$$
C4058-P163
     RDKit          3D

 49 53  0  0  0  0  0  0  0  0999 V2000
   -2.9194   -1.9960   31.5220 O   0  0  0  0  0  0  0  0  0  0  0  0
   -1.4312   -1.9482   31.6251 S   0  0  0  0  0  0  0  0  0  0  0  0
   -0.7412   -3.4696   31.3932 N   0  0  0  0  0  0  0  0  0  0  0  0
    0.3496   -4.1059   32.2394 C   0  0  0  0  0  0  0  0  0  0  0  0
   -0.2005   -4.4095   33.7039 C   0  0  0  0  0  0  0  0  0  0  0  0
   -0.4840   -5.8796   34.1056 C   0  0  0  0  0  0  0  0  0  0  0  0
   -0.8584   -6.7215   32.9534 C   0  0  0  0  0  0  0  0  0  0  0  0
   -1.6336   -7.7761   32.8562 N   0  0  0  0  0  0  0  0  0  0  0  0
   -1.5570   -8.2384   31.5556 N   0  0  0  0  0  0  0  0  0  0  0  0
   -0.7028   -7.4764   30.9170 C   0  0  0  0  0  0  0  0  0  0  0  0
   -0.2904   -6.4966   31.7446 N   0  0  0  0  0  0  0  0  0  0  0  0
    0.6912   -5.4705   31.5298 C   0  0  0  0  0  0  0  0  0  0  0  0
    1.5822   -3.2331   32.3690 N   0  0  0  0  0  0  0  0  0  0  0  0
    2.9230   -3.7654   32.0347 C   0  0  0  0  0  0  0  0  0  0  0  0
    3.3216   -3.7518   30.5277 C   0  0  0  0  0  0  0  0  0  0  0  0
    2.8628   -2.5019   29.7337 C   0  0  0  0  0  0  0  0  0  0  0  0
    1.4386   -2.1858   30.1817 C   0  0  0  0  0  0  0  0  0  0  0  0
    1.5393   -1.9324   31.7002 C   0  0  0  0  0  0  0  0  0  0  0  0
    0.5217   -1.2019   29.5383 C   0  0  0  0  0  0  0  0  0  0  0  0
    0.9235   -0.4852   28.4080 C   0  0  0  0  0  0  0  0  0  0  0  0
    0.0850    0.4512   27.8089 C   0  0  0  0  0  0  0  0  0  0  0  0
   -1.1798    0.7131   28.3116 C   0  0  0  0  0  0  0  0  0  0  0  0
   -2.0731    1.7186   27.6086 C   0  0  0  0  0  0  0  0  0  0  0  0
   -1.3648    2.6175   26.7525 O   0  0  0  0  0  0  0  0  0  0  0  0
   -1.5887   -0.0240   29.4518 C   0  0  0  0  0  0  0  0  0  0  0  0
   -0.7866   -1.0291   30.0456 C   0  0  0  0  0  0  0  0  0  0  0  0
   -1.4690   -4.1650   31.2594 H   0  0  0  0  0  0  0  0  0  0  0  0
   -1.1214   -3.8347   33.8623 H   0  0  0  0  0  0  0  0  0  0  0  0
    0.4910   -3.9969   34.4521 H   0  0  0  0  0  0  0  0  0  0  0  0
   -1.2494   -5.9177   34.8866 H   0  0  0  0  0  0  0  0  0  0  0  0
    0.4286   -6.2995   34.5481 H   0  0  0  0  0  0  0  0  0  0  0  0
   -0.3710   -7.6111   29.9025 H   0  0  0  0  0  0  0  0  0  0  0  0
    1.6102   -5.9220   31.9128 H   0  0  0  0  0  0  0  0  0  0  0  0
    0.8052   -5.3440   30.4475 H   0  0  0  0  0  0  0  0  0  0  0  0
    3.1024   -4.7480   32.4814 H   0  0  0  0  0  0  0  0  0  0  0  0
    3.6547   -3.1300   32.5559 H   0  0  0  0  0  0  0  0  0  0  0  0
    4.4102   -3.8503   30.4416 H   0  0  0  0  0  0  0  0  0  0  0  0
    2.8998   -4.6387   30.0418 H   0  0  0  0  0  0  0  0  0  0  0  0
    2.9113   -2.7155   28.6598 H   0  0  0  0  0  0  0  0  0  0  0  0
    3.5361   -1.6577   29.9241 H   0  0  0  0  0  0  0  0  0  0  0  0
    0.9374   -3.1230   29.9182 H   0  0  0  0  0  0  0  0  0  0  0  0
    2.4585   -1.3634   31.9177 H   0  0  0  0  0  0  0  0  0  0  0  0
    0.8169   -1.2639   32.1664 H   0  0  0  0  0  0  0  0  0  0  0  0
    1.9113   -0.6281   27.9764 H   0  0  0  0  0  0  0  0  0  0  0  0
    0.4511    1.0100   26.9534 H   0  0  0  0  0  0  0  0  0  0  0  0
   -2.8056    1.1953   26.9913 H   0  0  0  0  0  0  0  0  0  0  0  0
   -2.5678    2.3258   28.3618 H   0  0  0  0  0  0  0  0  0  0  0  0
   -2.0066    3.3134   26.5208 H   0  0  0  0  0  0  0  0  0  0  0  0
   -2.5488    0.1822   29.9094 H   0  0  0  0  0  0  0  0  0  0  0  0
  1  2  2  0
  2  3  1  0
  3  4  1  0
  4  5  1  0
  5  6  1  0
  6  7  1  0
  7  8  2  0
  8  9  1  0
  9 10  2  0
 10 11  1  0
 11 12  1  0
  4 13  1  0
 13 14  1  0
 14 15  1  0
 15 16  1  0
 16 17  1  0
 17 18  1  0
 17 19  1  0
 19 20  2  0
 20 21  1  0
 21 22  2  0
 22 23  1  0
 23 24  1  0
 22 25  1  0
 25 26  2  0
 26  2  1  0
 12  4  1  0
 18 13  1  0
 26 19  1  0
 11  7  1  0
  3 27  1  0
  5 28  1  0
  5 29  1  0
  6 30  1  0
  6 31  1  0
 10 32  1  0
 12 33  1  0
 12 34  1  0
 14 35  1  0
 14 36  1  0
 15 37  1  0
 15 38  1  0
 16 39  1  0
 16 40  1  0
 17 41  1  0
 18 42  1  0
 18 43  1  0
 20 44  1  0
 21 45  1  0
 23 46  1  0
 23 47  1  0
 24 48  1  0
 25 49  1  0
M  END
>  <Energy>  (324) 
71.844826501424308

>  <compound_id>  (324) 
4058

>  <target_id>  (324) 
1

>  <reference_id>  (324) 
163

>  <inspiration_ids>  (324) 
[141, 163]

>  <energy_score>  (324) 
-75.35388684787199

>  <distance_score>  (324) 
1.7964007979206047

>  <path>  (324) 
/opt/xchem-fragalysis-2/maxwin/BulkDock/SCRATCH/505735/C4058-P163/C4058-P163.minimised.mol

>  <scratch_subdir>  (324) 
/opt/xchem-fragalysis-2/maxwin/BulkDock/SCRATCH/505735/C4058-P163

>  <fragmenstein_runtime>  (324) 
3.6744155883789062

>  <fragmenstein_outcome>  (324) 
too moved

>  <fragmenstein_mode>  (324) 
expansion

>  <fragmenstein_error>  (324) 


$$$$
C4060-P141
     RDKit          3D

 52 56  0  0  0  0  0  0  0  0999 V2000
   -1.3092   -7.2445   34.4175 C   0  0  0  0  0  0  0  0  0  0  0  0
   -1.1288   -7.2781   32.9493 C   0  0  0  0  0  0  0  0  0  0  0  0
   -1.3667   -8.3006   32.1500 N   0  0  0  0  0  0  0  0  0  0  0  0
   -0.7873   -8.0383   30.9296 N   0  0  0  0  0  0  0  0  0  0  0  0
   -0.2078   -6.8669   31.0291 C   0  0  0  0  0  0  0  0  0  0  0  0
   -0.6078   -6.2728   32.1864 N   0  0  0  0  0  0  0  0  0  0  0  0
   -0.3269   -4.8969   32.5230 C   0  0  0  0  0  0  0  0  0  0  0  0
    0.6855   -4.1344   31.5661 C   0  0  0  0  0  0  0  0  0  0  0  0
    1.6376   -5.2394   31.0168 C   0  0  0  0  0  0  0  0  0  0  0  0
    0.7808   -6.2022   30.1617 C   0  0  0  0  0  0  0  0  0  0  0  0
    0.1069   -3.4921   30.3765 N   0  0  0  0  0  0  0  0  0  0  0  0
    1.1251   -2.7100   29.2881 S   0  0  0  0  0  0  0  0  0  0  0  0
    1.1482   -3.3587   27.9536 O   0  0  0  0  0  0  0  0  0  0  0  0
    0.2140   -1.1654   29.2549 C   0  0  0  0  0  0  0  0  0  0  0  0
   -0.0984   -0.4579   28.0838 C   0  0  0  0  0  0  0  0  0  0  0  0
   -1.0187    0.5904   28.0931 C   0  0  0  0  0  0  0  0  0  0  0  0
   -1.2336    1.6009   26.9974 C   0  0  0  0  0  0  0  0  0  0  0  0
   -2.2582    1.2510   26.1000 O   0  0  0  0  0  0  0  0  0  0  0  0
   -1.7565    0.7379   29.2455 C   0  0  0  0  0  0  0  0  0  0  0  0
   -1.3244    0.1723   30.4413 C   0  0  0  0  0  0  0  0  0  0  0  0
   -0.1880   -0.6242   30.4678 C   0  0  0  0  0  0  0  0  0  0  0  0
    0.6325   -0.7251   31.7515 C   0  0  0  0  0  0  0  0  0  0  0  0
    2.1496   -0.4421   31.5753 C   0  0  0  0  0  0  0  0  0  0  0  0
    3.0891   -1.6529   31.5513 C   0  0  0  0  0  0  0  0  0  0  0  0
    2.6480   -2.7914   32.4628 C   0  0  0  0  0  0  0  0  0  0  0  0
    1.2293   -3.0902   32.4295 N   0  0  0  0  0  0  0  0  0  0  0  0
    0.3753   -1.9249   32.6724 C   0  0  0  0  0  0  0  0  0  0  0  0
   -2.2017   -7.8065   34.7046 H   0  0  0  0  0  0  0  0  0  0  0  0
   -1.4005   -6.2292   34.8074 H   0  0  0  0  0  0  0  0  0  0  0  0
   -0.4481   -7.7119   34.9059 H   0  0  0  0  0  0  0  0  0  0  0  0
   -1.2882   -4.3754   32.5637 H   0  0  0  0  0  0  0  0  0  0  0  0
    0.0823   -4.9245   33.5421 H   0  0  0  0  0  0  0  0  0  0  0  0
    2.4549   -4.8390   30.4069 H   0  0  0  0  0  0  0  0  0  0  0  0
    2.1106   -5.7784   31.8486 H   0  0  0  0  0  0  0  0  0  0  0  0
    0.2433   -5.6563   29.3900 H   0  0  0  0  0  0  0  0  0  0  0  0
    1.3971   -6.9258   29.6354 H   0  0  0  0  0  0  0  0  0  0  0  0
   -0.7919   -3.0647   30.5682 H   0  0  0  0  0  0  0  0  0  0  0  0
    0.4152   -0.7257   27.1770 H   0  0  0  0  0  0  0  0  0  0  0  0
   -0.2995    1.7568   26.4517 H   0  0  0  0  0  0  0  0  0  0  0  0
   -1.4813    2.5787   27.4278 H   0  0  0  0  0  0  0  0  0  0  0  0
   -2.3731    0.2808   26.1502 H   0  0  0  0  0  0  0  0  0  0  0  0
   -2.5776    1.4421   29.2243 H   0  0  0  0  0  0  0  0  0  0  0  0
   -1.7981    0.4729   31.3703 H   0  0  0  0  0  0  0  0  0  0  0  0
    0.2866    0.1430   32.3372 H   0  0  0  0  0  0  0  0  0  0  0  0
    2.4556    0.1566   32.4462 H   0  0  0  0  0  0  0  0  0  0  0  0
    2.3432    0.2000   30.7073 H   0  0  0  0  0  0  0  0  0  0  0  0
    4.0845   -1.3177   31.8729 H   0  0  0  0  0  0  0  0  0  0  0  0
    3.2514   -2.0071   30.5329 H   0  0  0  0  0  0  0  0  0  0  0  0
    3.2677   -3.6759   32.2826 H   0  0  0  0  0  0  0  0  0  0  0  0
    2.8932   -2.5013   33.4938 H   0  0  0  0  0  0  0  0  0  0  0  0
    0.5837   -1.6014   33.7024 H   0  0  0  0  0  0  0  0  0  0  0  0
   -0.6913   -2.1799   32.6851 H   0  0  0  0  0  0  0  0  0  0  0  0
  1  2  1  0
  2  3  2  0
  3  4  1  0
  4  5  2  0
  5  6  1  0
  6  7  1  0
  7  8  1  0
  8  9  1  0
  9 10  1  0
  8 11  1  0
 11 12  1  0
 12 13  2  0
 12 14  1  0
 14 15  2  0
 15 16  1  0
 16 17  1  0
 17 18  1  0
 16 19  2  0
 19 20  1  0
 20 21  2  0
 21 22  1  0
 22 23  1  0
 23 24  1  0
 24 25  1  0
 25 26  1  0
 26 27  1  0
  6  2  1  0
 26  8  1  0
 10  5  1  0
 21 14  1  0
 27 22  1  0
  1 28  1  0
  1 29  1  0
  1 30  1  0
  7 31  1  0
  7 32  1  0
  9 33  1  0
  9 34  1  0
 10 35  1  0
 10 36  1  0
 11 37  1  0
 15 38  1  0
 17 39  1  0
 17 40  1  0
 18 41  1  0
 19 42  1  0
 20 43  1  0
 22 44  1  0
 23 45  1  0
 23 46  1  0
 24 47  1  0
 24 48  1  0
 25 49  1  0
 25 50  1  0
 27 51  1  0
 27 52  1  0
M  END
>  <Energy>  (325) 
68.406157876263592

>  <compound_id>  (325) 
4060

>  <target_id>  (325) 
1

>  <reference_id>  (325) 
141

>  <inspiration_ids>  (325) 
[141, 168]

>  <energy_score>  (325) 
-63.3622143324402

>  <distance_score>  (325) 
1.5997007713423668

>  <path>  (325) 
/opt/xchem-fragalysis-2/maxwin/BulkDock/SCRATCH/505735/C4060-P141/C4060-P141.minimised.mol

>  <scratch_subdir>  (325) 
/opt/xchem-fragalysis-2/maxwin/BulkDock/SCRATCH/505735/C4060-P141

>  <fragmenstein_runtime>  (325) 
4.575666427612305

>  <fragmenstein_outcome>  (325) 
too moved

>  <fragmenstein_mode>  (325) 
expansion

>  <fragmenstein_error>  (325) 


$$$$
C4060-P168
     RDKit          3D

 52 56  0  0  0  0  0  0  0  0999 V2000
   -1.1346   -6.7210   34.4400 C   0  0  0  0  0  0  0  0  0  0  0  0
   -1.0549   -7.0039   32.9916 C   0  0  0  0  0  0  0  0  0  0  0  0
   -1.3469   -8.1486   32.4034 N   0  0  0  0  0  0  0  0  0  0  0  0
   -0.8248   -8.1223   31.1326 N   0  0  0  0  0  0  0  0  0  0  0  0
   -0.2107   -6.9734   31.0048 C   0  0  0  0  0  0  0  0  0  0  0  0
   -0.5746   -6.1609   32.0293 N   0  0  0  0  0  0  0  0  0  0  0  0
   -0.4578   -4.7210   31.9958 C   0  0  0  0  0  0  0  0  0  0  0  0
    0.2043   -4.0762   30.6780 C   0  0  0  0  0  0  0  0  0  0  0  0
    0.3502   -5.1426   29.5316 C   0  0  0  0  0  0  0  0  0  0  0  0
    0.7508   -6.5043   30.0086 C   0  0  0  0  0  0  0  0  0  0  0  0
   -0.5925   -2.9878   30.0833 N   0  0  0  0  0  0  0  0  0  0  0  0
   -0.2994   -2.4480   28.5173 S   0  0  0  0  0  0  0  0  0  0  0  0
   -1.5972   -2.0236   27.9131 O   0  0  0  0  0  0  0  0  0  0  0  0
    0.5638   -0.8188   28.8806 C   0  0  0  0  0  0  0  0  0  0  0  0
    0.2385    0.1357   27.9000 C   0  0  0  0  0  0  0  0  0  0  0  0
   -0.8596    0.9410   28.1051 C   0  0  0  0  0  0  0  0  0  0  0  0
   -1.5923    1.6679   27.0080 C   0  0  0  0  0  0  0  0  0  0  0  0
   -0.7548    2.6402   26.3964 O   0  0  0  0  0  0  0  0  0  0  0  0
   -1.3573    0.8862   29.3913 C   0  0  0  0  0  0  0  0  0  0  0  0
   -0.6489    0.3150   30.4637 C   0  0  0  0  0  0  0  0  0  0  0  0
    0.4772   -0.4318   30.1958 C   0  0  0  0  0  0  0  0  0  0  0  0
    1.4812   -0.8765   31.2311 C   0  0  0  0  0  0  0  0  0  0  0  0
    2.9369   -0.9041   30.7003 C   0  0  0  0  0  0  0  0  0  0  0  0
    3.5796   -2.2909   30.7623 C   0  0  0  0  0  0  0  0  0  0  0  0
    2.5956   -3.3732   30.3431 C   0  0  0  0  0  0  0  0  0  0  0  0
    1.4261   -3.4415   31.2092 N   0  0  0  0  0  0  0  0  0  0  0  0
    1.1588   -2.1906   31.9657 C   0  0  0  0  0  0  0  0  0  0  0  0
   -1.1323   -5.6505   34.6552 H   0  0  0  0  0  0  0  0  0  0  0  0
   -0.2696   -7.1624   34.9462 H   0  0  0  0  0  0  0  0  0  0  0  0
   -2.0322   -7.1708   34.8715 H   0  0  0  0  0  0  0  0  0  0  0  0
   -1.4694   -4.3235   32.1192 H   0  0  0  0  0  0  0  0  0  0  0  0
    0.0888   -4.4501   32.9081 H   0  0  0  0  0  0  0  0  0  0  0  0
   -0.6027   -5.2543   28.9972 H   0  0  0  0  0  0  0  0  0  0  0  0
    1.0720   -4.8340   28.7666 H   0  0  0  0  0  0  0  0  0  0  0  0
    0.8296   -7.2068   29.1732 H   0  0  0  0  0  0  0  0  0  0  0  0
    1.7273   -6.3940   30.4801 H   0  0  0  0  0  0  0  0  0  0  0  0
   -1.5843   -3.1772   30.1876 H   0  0  0  0  0  0  0  0  0  0  0  0
    0.6028   -0.0023   26.9014 H   0  0  0  0  0  0  0  0  0  0  0  0
   -2.4766    2.1907   27.3801 H   0  0  0  0  0  0  0  0  0  0  0  0
   -1.9295    0.9552   26.2510 H   0  0  0  0  0  0  0  0  0  0  0  0
   -0.6467    3.3455   27.0584 H   0  0  0  0  0  0  0  0  0  0  0  0
   -2.3046    1.3511   29.5608 H   0  0  0  0  0  0  0  0  0  0  0  0
   -0.9805    0.4751   31.4836 H   0  0  0  0  0  0  0  0  0  0  0  0
    1.4659   -0.0855   31.9963 H   0  0  0  0  0  0  0  0  0  0  0  0
    3.5494   -0.2255   31.3090 H   0  0  0  0  0  0  0  0  0  0  0  0
    3.0143   -0.5140   29.6788 H   0  0  0  0  0  0  0  0  0  0  0  0
    3.9444   -2.4886   31.7784 H   0  0  0  0  0  0  0  0  0  0  0  0
    4.4614   -2.3125   30.1112 H   0  0  0  0  0  0  0  0  0  0  0  0
    2.3350   -3.1746   29.2999 H   0  0  0  0  0  0  0  0  0  0  0  0
    3.1078   -4.3416   30.3615 H   0  0  0  0  0  0  0  0  0  0  0  0
    1.7983   -2.2366   32.8589 H   0  0  0  0  0  0  0  0  0  0  0  0
    0.1419   -2.1517   32.3787 H   0  0  0  0  0  0  0  0  0  0  0  0
  1  2  1  0
  2  3  2  0
  3  4  1  0
  4  5  2  0
  5  6  1  0
  6  7  1  0
  7  8  1  0
  8  9  1  0
  9 10  1  0
  8 11  1  0
 11 12  1  0
 12 13  2  0
 12 14  1  0
 14 15  2  0
 15 16  1  0
 16 17  1  0
 17 18  1  0
 16 19  2  0
 19 20  1  0
 20 21  2  0
 21 22  1  0
 22 23  1  0
 23 24  1  0
 24 25  1  0
 25 26  1  0
 26 27  1  0
  6  2  1  0
 26  8  1  0
 10  5  1  0
 21 14  1  0
 27 22  1  0
  1 28  1  0
  1 29  1  0
  1 30  1  0
  7 31  1  0
  7 32  1  0
  9 33  1  0
  9 34  1  0
 10 35  1  0
 10 36  1  0
 11 37  1  0
 15 38  1  0
 17 39  1  0
 17 40  1  0
 18 41  1  0
 19 42  1  0
 20 43  1  0
 22 44  1  0
 23 45  1  0
 23 46  1  0
 24 47  1  0
 24 48  1  0
 25 49  1  0
 25 50  1  0
 27 51  1  0
 27 52  1  0
M  END
>  <Energy>  (326) 
107.03185308320957

>  <compound_id>  (326) 
4060

>  <target_id>  (326) 
1

>  <reference_id>  (326) 
168

>  <inspiration_ids>  (326) 
[141, 168]

>  <energy_score>  (326) 
-24.73651912549559

>  <distance_score>  (326) 
1.5403001567337502

>  <path>  (326) 
/opt/xchem-fragalysis-2/maxwin/BulkDock/SCRATCH/505735/C4060-P168/C4060-P168.minimised.mol

>  <scratch_subdir>  (326) 
/opt/xchem-fragalysis-2/maxwin/BulkDock/SCRATCH/505735/C4060-P168

>  <fragmenstein_runtime>  (326) 
4.29321551322937

>  <fragmenstein_outcome>  (326) 
too moved

>  <fragmenstein_mode>  (326) 
expansion

>  <fragmenstein_error>  (326) 


$$$$
C4058-P141
     RDKit          3D

 49 53  0  0  0  0  0  0  0  0999 V2000
   -2.7931   -2.2112   30.9551 O   0  0  0  0  0  0  0  0  0  0  0  0
   -1.3280   -2.0158   31.1363 S   0  0  0  0  0  0  0  0  0  0  0  0
   -0.4546   -3.3763   30.7568 N   0  0  0  0  0  0  0  0  0  0  0  0
    0.6427   -4.0083   31.5567 C   0  0  0  0  0  0  0  0  0  0  0  0
    1.2683   -5.1225   30.6386 C   0  0  0  0  0  0  0  0  0  0  0  0
    0.3032   -6.2278   30.2500 C   0  0  0  0  0  0  0  0  0  0  0  0
   -0.4067   -6.7506   31.4155 C   0  0  0  0  0  0  0  0  0  0  0  0
   -1.0436   -7.8903   31.5186 N   0  0  0  0  0  0  0  0  0  0  0  0
   -1.4998   -7.9722   32.8009 N   0  0  0  0  0  0  0  0  0  0  0  0
   -1.1448   -6.8756   33.4338 C   0  0  0  0  0  0  0  0  0  0  0  0
   -0.5006   -6.0504   32.5767 N   0  0  0  0  0  0  0  0  0  0  0  0
    0.0769   -4.7450   32.8330 C   0  0  0  0  0  0  0  0  0  0  0  0
    1.6976   -3.0280   32.0303 N   0  0  0  0  0  0  0  0  0  0  0  0
    3.1315   -3.3418   31.8172 C   0  0  0  0  0  0  0  0  0  0  0  0
    3.7349   -2.9902   30.4194 C   0  0  0  0  0  0  0  0  0  0  0  0
    3.1650   -1.7179   29.7329 C   0  0  0  0  0  0  0  0  0  0  0  0
    1.6696   -1.6669   30.0277 C   0  0  0  0  0  0  0  0  0  0  0  0
    1.5669   -1.6469   31.5625 C   0  0  0  0  0  0  0  0  0  0  0  0
    0.6609   -0.7708   29.3879 C   0  0  0  0  0  0  0  0  0  0  0  0
    1.0307    0.1170   28.3758 C   0  0  0  0  0  0  0  0  0  0  0  0
    0.0836    0.9027   27.7201 C   0  0  0  0  0  0  0  0  0  0  0  0
   -1.2640    0.8182   28.0363 C   0  0  0  0  0  0  0  0  0  0  0  0
   -2.2927    1.6284   27.2789 C   0  0  0  0  0  0  0  0  0  0  0  0
   -1.7093    2.6059   26.4161 O   0  0  0  0  0  0  0  0  0  0  0  0
   -1.6277   -0.0723   29.0662 C   0  0  0  0  0  0  0  0  0  0  0  0
   -0.7057   -0.9015   29.7269 C   0  0  0  0  0  0  0  0  0  0  0  0
   -1.0352   -4.0810   30.3168 H   0  0  0  0  0  0  0  0  0  0  0  0
    1.6647   -4.7072   29.7086 H   0  0  0  0  0  0  0  0  0  0  0  0
    2.0982   -5.6140   31.1569 H   0  0  0  0  0  0  0  0  0  0  0  0
    0.8575   -7.0388   29.7719 H   0  0  0  0  0  0  0  0  0  0  0  0
   -0.4241   -5.8529   29.5346 H   0  0  0  0  0  0  0  0  0  0  0  0
   -1.3490   -6.6484   34.4719 H   0  0  0  0  0  0  0  0  0  0  0  0
    0.8897   -4.9295   33.5482 H   0  0  0  0  0  0  0  0  0  0  0  0
   -0.6795   -4.1368   33.3420 H   0  0  0  0  0  0  0  0  0  0  0  0
    3.3778   -4.3692   32.1028 H   0  0  0  0  0  0  0  0  0  0  0  0
    3.6923   -2.7468   32.5536 H   0  0  0  0  0  0  0  0  0  0  0  0
    4.8219   -2.8814   30.5170 H   0  0  0  0  0  0  0  0  0  0  0  0
    3.5863   -3.8379   29.7425 H   0  0  0  0  0  0  0  0  0  0  0  0
    3.3647   -1.7651   28.6562 H   0  0  0  0  0  0  0  0  0  0  0  0
    3.6709   -0.8213   30.1109 H   0  0  0  0  0  0  0  0  0  0  0  0
    1.3611   -2.6141   29.5770 H   0  0  0  0  0  0  0  0  0  0  0  0
    2.3771   -1.0272   31.9815 H   0  0  0  0  0  0  0  0  0  0  0  0
    0.7205   -1.1355   32.0186 H   0  0  0  0  0  0  0  0  0  0  0  0
    2.0708    0.2160   28.0736 H   0  0  0  0  0  0  0  0  0  0  0  0
    0.4196    1.5970   26.9533 H   0  0  0  0  0  0  0  0  0  0  0  0
   -2.9090    0.9638   26.6672 H   0  0  0  0  0  0  0  0  0  0  0  0
   -2.9148    2.1585   27.9953 H   0  0  0  0  0  0  0  0  0  0  0  0
   -2.4365    3.2095   26.1766 H   0  0  0  0  0  0  0  0  0  0  0  0
   -2.6532   -0.1465   29.3873 H   0  0  0  0  0  0  0  0  0  0  0  0
  1  2  2  0
  2  3  1  0
  3  4  1  0
  4  5  1  0
  5  6  1  0
  6  7  1  0
  7  8  2  0
  8  9  1  0
  9 10  2  0
 10 11  1  0
 11 12  1  0
  4 13  1  0
 13 14  1  0
 14 15  1  0
 15 16  1  0
 16 17  1  0
 17 18  1  0
 17 19  1  0
 19 20  2  0
 20 21  1  0
 21 22  2  0
 22 23  1  0
 23 24  1  0
 22 25  1  0
 25 26  2  0
 26  2  1  0
 12  4  1  0
 18 13  1  0
 26 19  1  0
 11  7  1  0
  3 27  1  0
  5 28  1  0
  5 29  1  0
  6 30  1  0
  6 31  1  0
 10 32  1  0
 12 33  1  0
 12 34  1  0
 14 35  1  0
 14 36  1  0
 15 37  1  0
 15 38  1  0
 16 39  1  0
 16 40  1  0
 17 41  1  0
 18 42  1  0
 18 43  1  0
 20 44  1  0
 21 45  1  0
 23 46  1  0
 23 47  1  0
 24 48  1  0
 25 49  1  0
M  END
>  <Energy>  (327) 
62.806055243612157

>  <compound_id>  (327) 
4058

>  <target_id>  (327) 
1

>  <reference_id>  (327) 
141

>  <inspiration_ids>  (327) 
[141, 186]

>  <energy_score>  (327) 
-92.21511351203094

>  <distance_score>  (327) 
1.8582316438320878

>  <path>  (327) 
/opt/xchem-fragalysis-2/maxwin/BulkDock/SCRATCH/505735/C4058-P141/C4058-P141.minimised.mol

>  <scratch_subdir>  (327) 
/opt/xchem-fragalysis-2/maxwin/BulkDock/SCRATCH/505735/C4058-P141

>  <fragmenstein_runtime>  (327) 
3.7619924545288086

>  <fragmenstein_outcome>  (327) 
too moved

>  <fragmenstein_mode>  (327) 
expansion

>  <fragmenstein_error>  (327) 


$$$$
C4058-P186
     RDKit          3D

 49 53  0  0  0  0  0  0  0  0999 V2000
   -2.3056   -2.2757   31.2957 O   0  0  0  0  0  0  0  0  0  0  0  0
   -0.9894   -2.3132   32.0072 S   0  0  0  0  0  0  0  0  0  0  0  0
   -0.0550   -3.5634   31.4616 N   0  0  0  0  0  0  0  0  0  0  0  0
    0.7778   -4.5255   32.2449 C   0  0  0  0  0  0  0  0  0  0  0  0
    1.5775   -5.3078   31.1444 C   0  0  0  0  0  0  0  0  0  0  0  0
    0.6913   -6.0566   30.1535 C   0  0  0  0  0  0  0  0  0  0  0  0
   -0.2705   -6.8952   30.8857 C   0  0  0  0  0  0  0  0  0  0  0  0
   -0.9089   -7.9576   30.4570 N   0  0  0  0  0  0  0  0  0  0  0  0
   -1.6009   -8.4733   31.5203 N   0  0  0  0  0  0  0  0  0  0  0  0
   -1.3707   -7.7097   32.5656 C   0  0  0  0  0  0  0  0  0  0  0  0
   -0.6080   -6.6554   32.1861 N   0  0  0  0  0  0  0  0  0  0  0  0
   -0.1108   -5.5726   33.0096 C   0  0  0  0  0  0  0  0  0  0  0  0
    1.6867   -3.9056   33.2843 N   0  0  0  0  0  0  0  0  0  0  0  0
    3.1134   -4.3109   33.3459 C   0  0  0  0  0  0  0  0  0  0  0  0
    4.1032   -3.5753   32.3903 C   0  0  0  0  0  0  0  0  0  0  0  0
    3.7775   -2.0826   32.1165 C   0  0  0  0  0  0  0  0  0  0  0  0
    2.2567   -1.9637   32.0085 C   0  0  0  0  0  0  0  0  0  0  0  0
    1.7027   -2.4468   33.3494 C   0  0  0  0  0  0  0  0  0  0  0  0
    1.4755   -0.8343   31.4166 C   0  0  0  0  0  0  0  0  0  0  0  0
    2.1669    0.2413   30.8504 C   0  0  0  0  0  0  0  0  0  0  0  0
    1.4999    1.1588   30.0557 C   0  0  0  0  0  0  0  0  0  0  0  0
    0.1308    1.0269   29.8214 C   0  0  0  0  0  0  0  0  0  0  0  0
   -0.4923    1.9800   28.8497 C   0  0  0  0  0  0  0  0  0  0  0  0
   -1.8564    1.6622   28.6522 O   0  0  0  0  0  0  0  0  0  0  0  0
   -0.5881   -0.0050   30.4464 C   0  0  0  0  0  0  0  0  0  0  0  0
    0.0645   -0.9618   31.2273 C   0  0  0  0  0  0  0  0  0  0  0  0
   -0.5625   -4.0592   30.7349 H   0  0  0  0  0  0  0  0  0  0  0  0
    2.2329   -4.6555   30.5615 H   0  0  0  0  0  0  0  0  0  0  0  0
    2.2070   -6.0566   31.6286 H   0  0  0  0  0  0  0  0  0  0  0  0
    1.3198   -6.6779   29.5108 H   0  0  0  0  0  0  0  0  0  0  0  0
    0.1655   -5.3672   29.4886 H   0  0  0  0  0  0  0  0  0  0  0  0
   -1.7319   -7.8811   33.5710 H   0  0  0  0  0  0  0  0  0  0  0  0
    0.4774   -6.0627   33.7974 H   0  0  0  0  0  0  0  0  0  0  0  0
   -0.9703   -5.0931   33.4899 H   0  0  0  0  0  0  0  0  0  0  0  0
    3.2346   -5.3961   33.2746 H   0  0  0  0  0  0  0  0  0  0  0  0
    3.4520   -4.0920   34.3694 H   0  0  0  0  0  0  0  0  0  0  0  0
    5.1200   -3.6516   32.7936 H   0  0  0  0  0  0  0  0  0  0  0  0
    4.1247   -4.1003   31.4294 H   0  0  0  0  0  0  0  0  0  0  0  0
    4.2795   -1.7689   31.1943 H   0  0  0  0  0  0  0  0  0  0  0  0
    4.1641   -1.4493   32.9238 H   0  0  0  0  0  0  0  0  0  0  0  0
    2.0914   -2.6788   31.1978 H   0  0  0  0  0  0  0  0  0  0  0  0
    2.3520   -2.1094   34.1730 H   0  0  0  0  0  0  0  0  0  0  0  0
    0.7520   -2.0356   33.6851 H   0  0  0  0  0  0  0  0  0  0  0  0
    3.2426    0.3457   30.9684 H   0  0  0  0  0  0  0  0  0  0  0  0
    2.0637    1.9601   29.5796 H   0  0  0  0  0  0  0  0  0  0  0  0
    0.0438    1.8981   27.9034 H   0  0  0  0  0  0  0  0  0  0  0  0
   -0.4101    3.0110   29.2055 H   0  0  0  0  0  0  0  0  0  0  0  0
   -1.8596    0.7861   28.2271 H   0  0  0  0  0  0  0  0  0  0  0  0
   -1.6624   -0.0899   30.2957 H   0  0  0  0  0  0  0  0  0  0  0  0
  1  2  2  0
  2  3  1  0
  3  4  1  0
  4  5  1  0
  5  6  1  0
  6  7  1  0
  7  8  2  0
  8  9  1  0
  9 10  2  0
 10 11  1  0
 11 12  1  0
  4 13  1  0
 13 14  1  0
 14 15  1  0
 15 16  1  0
 16 17  1  0
 17 18  1  0
 17 19  1  0
 19 20  2  0
 20 21  1  0
 21 22  2  0
 22 23  1  0
 23 24  1  0
 22 25  1  0
 25 26  2  0
 26  2  1  0
 12  4  1  0
 18 13  1  0
 26 19  1  0
 11  7  1  0
  3 27  1  0
  5 28  1  0
  5 29  1  0
  6 30  1  0
  6 31  1  0
 10 32  1  0
 12 33  1  0
 12 34  1  0
 14 35  1  0
 14 36  1  0
 15 37  1  0
 15 38  1  0
 16 39  1  0
 16 40  1  0
 17 41  1  0
 18 42  1  0
 18 43  1  0
 20 44  1  0
 21 45  1  0
 23 46  1  0
 23 47  1  0
 24 48  1  0
 25 49  1  0
M  END
>  <Energy>  (328) 
64.656981763210823

>  <compound_id>  (328) 
4058

>  <target_id>  (328) 
1

>  <reference_id>  (328) 
186

>  <inspiration_ids>  (328) 
[141, 186]

>  <energy_score>  (328) 
-54.57299092051534

>  <distance_score>  (328) 
2.727151786872832

>  <path>  (328) 
/opt/xchem-fragalysis-2/maxwin/BulkDock/SCRATCH/505735/C4058-P186/C4058-P186.minimised.mol

>  <scratch_subdir>  (328) 
/opt/xchem-fragalysis-2/maxwin/BulkDock/SCRATCH/505735/C4058-P186

>  <fragmenstein_runtime>  (328) 
5.8071184158325195

>  <fragmenstein_outcome>  (328) 
too moved

>  <fragmenstein_mode>  (328) 
expansion

>  <fragmenstein_error>  (328) 


$$$$
C4058-P141
     RDKit          2D

  0  0  0  0  0  0  0  0  0  0999 V2000
M  END
>  <compound_id>  (329) 
4058

>  <target_id>  (329) 
1

>  <reference_id>  (329) 
141

>  <inspiration_ids>  (329) 
[141, 187]

>  <energy_score>  (329) 
nan

>  <distance_score>  (329) 
nan

>  <path>  (329) 
/opt/xchem-fragalysis-2/maxwin/BulkDock/SCRATCH/505735/C4058-P141/C4058-P141.minimised.mol

>  <scratch_subdir>  (329) 
/opt/xchem-fragalysis-2/maxwin/BulkDock/SCRATCH/505735/C4058-P141

>  <fragmenstein_runtime>  (329) 
0.47028398513793945

>  <fragmenstein_outcome>  (329) 
too distant

>  <fragmenstein_mode>  (329) 
expansion

>  <fragmenstein_error>  (329) 
DistanceError: hit0+hit1

$$$$
C4063-P141
     RDKit          3D

 51 53  0  0  0  0  0  0  0  0999 V2000
   -1.2914   -7.5675   33.9484 C   0  0  0  0  0  0  0  0  0  0  0  0
   -0.8325   -7.3367   32.5611 C   0  0  0  0  0  0  0  0  0  0  0  0
   -1.0715   -8.1015   31.5130 N   0  0  0  0  0  0  0  0  0  0  0  0
   -0.4236   -7.5619   30.4297 N   0  0  0  0  0  0  0  0  0  0  0  0
    0.1841   -6.4728   30.8377 C   0  0  0  0  0  0  0  0  0  0  0  0
   -0.0483   -6.2815   32.1665 N   0  0  0  0  0  0  0  0  0  0  0  0
    0.4410   -5.1890   33.0080 C   0  0  0  0  0  0  0  0  0  0  0  0
    1.7330   -5.5898   33.7156 C   0  0  0  0  0  0  0  0  0  0  0  0
    0.4397   -3.8041   32.2809 C   0  0  0  0  0  0  0  0  0  0  0  0
   -0.5550   -3.6420   31.5098 N   0  0  0  0  0  0  0  0  0  0  0  0
   -1.4283   -2.2076   31.2985 S   0  0  0  0  0  4  0  0  0  0  0  0
   -2.8602   -2.5924   31.5815 O   0  0  0  0  0  0  0  0  0  0  0  0
    1.5730   -2.9390   32.5695 N   0  0  0  0  0  0  0  0  0  0  0  0
    1.8865   -1.4917   32.1227 C   0  0  0  0  0  0  0  0  0  0  0  0
    1.5402   -0.9666   30.7272 C   0  0  0  0  0  0  0  0  0  0  0  0
    1.7725   -1.9918   29.6488 C   0  0  0  0  0  0  0  0  0  0  0  0
    2.9874   -2.7662   30.0938 C   0  0  0  0  0  0  0  0  0  0  0  0
    3.4796   -3.8616   29.1571 C   0  0  0  0  0  0  0  0  0  0  0  0
    2.6595   -4.4445   28.1908 C   0  0  0  0  0  0  0  0  0  0  0  0
    3.1656   -5.4087   27.3144 C   0  0  0  0  0  0  0  0  0  0  0  0
    4.4868   -5.8545   27.3936 C   0  0  0  0  0  0  0  0  0  0  0  0
    5.0214   -6.8481   26.3905 C   0  0  0  0  0  0  0  0  0  0  0  0
    3.9958   -7.7676   26.0178 O   0  0  0  0  0  0  0  0  0  0  0  0
    5.3101   -5.2864   28.3687 C   0  0  0  0  0  0  0  0  0  0  0  0
    4.8131   -4.3037   29.2381 C   0  0  0  0  0  0  0  0  0  0  0  0
    2.8220   -3.2612   31.5419 C   0  0  0  0  0  0  0  0  0  0  0  0
   -1.6250   -6.6483   34.4314 H   0  0  0  0  0  0  0  0  0  0  0  0
   -2.1362   -8.2586   33.9568 H   0  0  0  0  0  0  0  0  0  0  0  0
   -0.4860   -7.9891   34.5552 H   0  0  0  0  0  0  0  0  0  0  0  0
    0.7680   -5.8051   30.2222 H   0  0  0  0  0  0  0  0  0  0  0  0
   -0.3188   -5.0495   33.7885 H   0  0  0  0  0  0  0  0  0  0  0  0
    2.5178   -5.8626   33.0056 H   0  0  0  0  0  0  0  0  0  0  0  0
    1.5708   -6.4647   34.3553 H   0  0  0  0  0  0  0  0  0  0  0  0
    2.1114   -4.7853   34.3538 H   0  0  0  0  0  0  0  0  0  0  0  0
   -1.0759   -1.3609   32.2950 H   0  0  0  0  0  0  0  0  0  0  0  0
    1.2733   -0.8888   32.8091 H   0  0  0  0  0  0  0  0  0  0  0  0
    2.9014   -1.1849   32.4300 H   0  0  0  0  0  0  0  0  0  0  0  0
    2.1931   -0.1022   30.5391 H   0  0  0  0  0  0  0  0  0  0  0  0
    0.5364   -0.5447   30.6662 H   0  0  0  0  0  0  0  0  0  0  0  0
    1.9310   -1.5039   28.6799 H   0  0  0  0  0  0  0  0  0  0  0  0
    0.9032   -2.6425   29.5335 H   0  0  0  0  0  0  0  0  0  0  0  0
    3.8121   -2.0344   30.1071 H   0  0  0  0  0  0  0  0  0  0  0  0
    1.6185   -4.1497   28.0877 H   0  0  0  0  0  0  0  0  0  0  0  0
    2.5256   -5.8171   26.5408 H   0  0  0  0  0  0  0  0  0  0  0  0
    5.8494   -7.4234   26.8160 H   0  0  0  0  0  0  0  0  0  0  0  0
    5.3685   -6.3157   25.4994 H   0  0  0  0  0  0  0  0  0  0  0  0
    4.3148   -8.1940   25.1919 H   0  0  0  0  0  0  0  0  0  0  0  0
    6.3534   -5.5868   28.4468 H   0  0  0  0  0  0  0  0  0  0  0  0
    5.4929   -3.8691   29.9693 H   0  0  0  0  0  0  0  0  0  0  0  0
    2.7996   -4.3568   31.4928 H   0  0  0  0  0  0  0  0  0  0  0  0
    3.7467   -3.0782   32.1150 H   0  0  0  0  0  0  0  0  0  0  0  0
  1  2  1  0
  2  3  2  0
  3  4  1  0
  4  5  2  0
  5  6  1  0
  6  7  1  0
  7  8  1  0
  7  9  1  0
  9 10  2  3
 10 11  1  0
 11 12  2  0
  9 13  1  0
 13 14  1  0
 14 15  1  0
 15 16  1  0
 16 17  1  0
 17 18  1  0
 18 19  2  0
 19 20  1  0
 20 21  2  0
 21 22  1  0
 22 23  1  0
 21 24  1  0
 24 25  2  0
 17 26  1  0
  6  2  1  0
 26 13  1  0
 25 18  1  0
  1 27  1  0
  1 28  1  0
  1 29  1  0
  5 30  1  0
  7 31  1  0
  8 32  1  0
  8 33  1  0
  8 34  1  0
 11 35  1  0
 14 36  1  0
 14 37  1  0
 15 38  1  0
 15 39  1  0
 16 40  1  0
 16 41  1  0
 17 42  1  0
 19 43  1  0
 20 44  1  0
 22 45  1  0
 22 46  1  0
 23 47  1  0
 24 48  1  0
 25 49  1  0
 26 50  1  0
 26 51  1  0
M  END
>  <Energy>  (330) 
134.90991555969609

>  <compound_id>  (330) 
4063

>  <target_id>  (330) 
1

>  <reference_id>  (330) 
141

>  <inspiration_ids>  (330) 
[141, 190]

>  <energy_score>  (330) 
37.822160496360766

>  <distance_score>  (330) 
1.9423800340788788

>  <path>  (330) 
/opt/xchem-fragalysis-2/maxwin/BulkDock/SCRATCH/505735/C4063-P141/C4063-P141.minimised.mol

>  <scratch_subdir>  (330) 
/opt/xchem-fragalysis-2/maxwin/BulkDock/SCRATCH/505735/C4063-P141

>  <fragmenstein_runtime>  (330) 
11.287912368774414

>  <fragmenstein_outcome>  (330) 
too moved

>  <fragmenstein_mode>  (330) 
expansion

>  <fragmenstein_error>  (330) 


$$$$
C4063-P190
     RDKit          3D

 51 53  0  0  0  0  0  0  0  0999 V2000
   -0.9028   -7.2684   34.4289 C   0  0  0  0  0  0  0  0  0  0  0  0
   -0.7026   -6.9507   32.9994 C   0  0  0  0  0  0  0  0  0  0  0  0
   -0.9842   -7.7569   31.9947 N   0  0  0  0  0  0  0  0  0  0  0  0
   -0.6985   -7.1016   30.8295 N   0  0  0  0  0  0  0  0  0  0  0  0
   -0.2598   -5.9047   31.1490 C   0  0  0  0  0  0  0  0  0  0  0  0
   -0.1834   -5.7702   32.5023 N   0  0  0  0  0  0  0  0  0  0  0  0
    0.3219   -4.6336   33.2921 C   0  0  0  0  0  0  0  0  0  0  0  0
    1.5479   -5.0501   34.1238 C   0  0  0  0  0  0  0  0  0  0  0  0
    0.6228   -3.2952   32.4667 C   0  0  0  0  0  0  0  0  0  0  0  0
   -0.2918   -2.5226   32.2073 N   0  0  0  0  0  0  0  0  0  0  0  0
   -1.9164   -2.5500   32.6283 S   0  0  0  0  0  4  0  0  0  0  0  0
   -2.5825   -3.3815   31.5668 O   0  0  0  0  0  0  0  0  0  0  0  0
    2.1337   -3.1694   32.2126 N   0  0  0  0  0  0  0  0  0  0  0  0
    2.9565   -2.0124   31.6606 C   0  0  0  0  0  0  0  0  0  0  0  0
    2.5840   -1.3343   30.3365 C   0  0  0  0  0  0  0  0  0  0  0  0
    3.3904   -2.0367   29.2581 C   0  0  0  0  0  0  0  0  0  0  0  0
    3.7597   -3.4058   29.8378 C   0  0  0  0  0  0  0  0  0  0  0  0
    4.1376   -4.4106   28.7651 C   0  0  0  0  0  0  0  0  0  0  0  0
    3.2292   -4.8401   27.7972 C   0  0  0  0  0  0  0  0  0  0  0  0
    3.6323   -5.7207   26.7879 C   0  0  0  0  0  0  0  0  0  0  0  0
    4.9414   -6.2103   26.7218 C   0  0  0  0  0  0  0  0  0  0  0  0
    5.3896   -7.0930   25.5807 C   0  0  0  0  0  0  0  0  0  0  0  0
    4.3185   -7.9227   25.1491 O   0  0  0  0  0  0  0  0  0  0  0  0
    5.8494   -5.7914   27.6970 C   0  0  0  0  0  0  0  0  0  0  0  0
    5.4520   -4.9057   28.7057 C   0  0  0  0  0  0  0  0  0  0  0  0
    2.5541   -3.8033   30.7190 C   0  0  0  0  0  0  0  0  0  0  0  0
   -1.1124   -6.3791   35.0289 H   0  0  0  0  0  0  0  0  0  0  0  0
   -1.7575   -7.9414   34.5465 H   0  0  0  0  0  0  0  0  0  0  0  0
   -0.0214   -7.7710   34.8372 H   0  0  0  0  0  0  0  0  0  0  0  0
   -0.0216   -5.1255   30.4429 H   0  0  0  0  0  0  0  0  0  0  0  0
   -0.4749   -4.4021   34.0081 H   0  0  0  0  0  0  0  0  0  0  0  0
    2.3291   -5.4944   33.4966 H   0  0  0  0  0  0  0  0  0  0  0  0
    1.2907   -5.7907   34.8857 H   0  0  0  0  0  0  0  0  0  0  0  0
    1.9755   -4.1913   34.6529 H   0  0  0  0  0  0  0  0  0  0  0  0
   -2.3954   -1.2897   32.4832 H   0  0  0  0  0  0  0  0  0  0  0  0
    2.7130   -1.2303   32.3982 H   0  0  0  0  0  0  0  0  0  0  0  0
    4.0292   -2.1292   31.8739 H   0  0  0  0  0  0  0  0  0  0  0  0
    2.8519   -0.2718   30.3543 H   0  0  0  0  0  0  0  0  0  0  0  0
    1.5074   -1.3932   30.1401 H   0  0  0  0  0  0  0  0  0  0  0  0
    4.3021   -1.4770   29.0173 H   0  0  0  0  0  0  0  0  0  0  0  0
    2.8012   -2.0964   28.3362 H   0  0  0  0  0  0  0  0  0  0  0  0
    4.6529   -3.3149   30.4692 H   0  0  0  0  0  0  0  0  0  0  0  0
    2.2058   -4.4755   27.7986 H   0  0  0  0  0  0  0  0  0  0  0  0
    2.9209   -6.0257   26.0257 H   0  0  0  0  0  0  0  0  0  0  0  0
    5.7289   -6.4725   24.7471 H   0  0  0  0  0  0  0  0  0  0  0  0
    6.2125   -7.7419   25.8976 H   0  0  0  0  0  0  0  0  0  0  0  0
    4.6527   -8.3876   24.3470 H   0  0  0  0  0  0  0  0  0  0  0  0
    6.8815   -6.1354   27.6675 H   0  0  0  0  0  0  0  0  0  0  0  0
    6.1966   -4.5888   29.4342 H   0  0  0  0  0  0  0  0  0  0  0  0
    1.6330   -3.7670   30.1195 H   0  0  0  0  0  0  0  0  0  0  0  0
    2.6805   -4.8647   30.9759 H   0  0  0  0  0  0  0  0  0  0  0  0
  1  2  1  0
  2  3  2  0
  3  4  1  0
  4  5  2  0
  5  6  1  0
  6  7  1  0
  7  8  1  0
  7  9  1  0
  9 10  2  3
 10 11  1  0
 11 12  2  0
  9 13  1  0
 13 14  1  0
 14 15  1  0
 15 16  1  0
 16 17  1  0
 17 18  1  0
 18 19  2  0
 19 20  1  0
 20 21  2  0
 21 22  1  0
 22 23  1  0
 21 24  1  0
 24 25  2  0
 17 26  1  0
  6  2  1  0
 26 13  1  0
 25 18  1  0
  1 27  1  0
  1 28  1  0
  1 29  1  0
  5 30  1  0
  7 31  1  0
  8 32  1  0
  8 33  1  0
  8 34  1  0
 11 35  1  0
 14 36  1  0
 14 37  1  0
 15 38  1  0
 15 39  1  0
 16 40  1  0
 16 41  1  0
 17 42  1  0
 19 43  1  0
 20 44  1  0
 22 45  1  0
 22 46  1  0
 23 47  1  0
 24 48  1  0
 25 49  1  0
 26 50  1  0
 26 51  1  0
M  END
>  <Energy>  (331) 
140.66691287120187

>  <compound_id>  (331) 
4063

>  <target_id>  (331) 
1

>  <reference_id>  (331) 
190

>  <inspiration_ids>  (331) 
[141, 190]

>  <energy_score>  (331) 
55.64142649837629

>  <distance_score>  (331) 
2.3697574959273457

>  <path>  (331) 
/opt/xchem-fragalysis-2/maxwin/BulkDock/SCRATCH/505735/C4063-P190/C4063-P190.minimised.mol

>  <scratch_subdir>  (331) 
/opt/xchem-fragalysis-2/maxwin/BulkDock/SCRATCH/505735/C4063-P190

>  <fragmenstein_runtime>  (331) 
10.559841632843018

>  <fragmenstein_outcome>  (331) 
too moved

>  <fragmenstein_mode>  (331) 
expansion

>  <fragmenstein_error>  (331) 


$$$$
C4031-P141
     RDKit          3D

 45 47  0  0  0  0  0  0  0  0999 V2000
   -0.8426   -6.8904   34.3797 C   0  0  0  0  0  0  0  0  0  0  0  0
   -0.8630   -7.2314   32.9425 C   0  0  0  0  0  0  0  0  0  0  0  0
   -1.6255   -8.1352   32.3627 N   0  0  0  0  0  0  0  0  0  0  0  0
   -1.2849   -8.2101   31.0386 N   0  0  0  0  0  0  0  0  0  0  0  0
   -0.3130   -7.3567   30.8419 C   0  0  0  0  0  0  0  0  0  0  0  0
   -0.0542   -6.6725   31.9900 N   0  0  0  0  0  0  0  0  0  0  0  0
    0.9308   -5.6258   32.1637 C   0  0  0  0  0  0  0  0  0  0  0  0
    0.8846   -4.6021   31.0348 C   0  0  0  0  0  0  0  0  0  0  0  0
    1.0469   -4.8951   29.9065 O   0  0  0  0  0  0  0  0  0  0  0  0
    0.5161   -3.2670   31.6606 N   0  0  0  0  0  0  0  0  0  0  0  0
    1.7596   -2.4581   32.0048 C   0  0  0  0  0  0  0  0  0  0  0  0
    2.8024   -2.2500   30.8889 C   0  0  0  0  0  0  0  0  0  0  0  0
    2.2638   -1.2526   29.8878 C   0  0  0  0  0  0  0  0  0  0  0  0
    0.7937   -1.5782   29.6556 C   0  0  0  0  0  0  0  0  0  0  0  0
   -0.0013   -0.4955   28.9481 C   0  0  0  0  0  0  0  0  0  0  0  0
   -1.0549   -0.8884   28.1140 C   0  0  0  0  0  0  0  0  0  0  0  0
   -1.8047    0.0527   27.4067 C   0  0  0  0  0  0  0  0  0  0  0  0
   -1.5647    1.4182   27.5504 C   0  0  0  0  0  0  0  0  0  0  0  0
   -2.4003    2.4287   26.8172 C   0  0  0  0  0  0  0  0  0  0  0  0
   -1.6268    3.0229   25.7825 O   0  0  0  0  0  0  0  0  0  0  0  0
   -0.5252    1.8199   28.3932 C   0  0  0  0  0  0  0  0  0  0  0  0
    0.2438    0.8766   29.0879 C   0  0  0  0  0  0  0  0  0  0  0  0
    0.1470   -1.9407   31.0164 C   0  0  0  0  0  0  0  0  0  0  0  0
   -0.9853   -5.8182   34.5371 H   0  0  0  0  0  0  0  0  0  0  0  0
   -1.6407   -7.4191   34.9101 H   0  0  0  0  0  0  0  0  0  0  0  0
    0.1110   -7.1848   34.8289 H   0  0  0  0  0  0  0  0  0  0  0  0
    0.2176   -7.2051   29.9174 H   0  0  0  0  0  0  0  0  0  0  0  0
    0.7712   -5.1489   33.1343 H   0  0  0  0  0  0  0  0  0  0  0  0
    1.9182   -6.0957   32.1747 H   0  0  0  0  0  0  0  0  0  0  0  0
    2.2754   -3.1308   32.7095 H   0  0  0  0  0  0  0  0  0  0  0  0
    1.5959   -1.5751   32.6468 H   0  0  0  0  0  0  0  0  0  0  0  0
    3.7382   -1.8747   31.3189 H   0  0  0  0  0  0  0  0  0  0  0  0
    3.0428   -3.1953   30.3911 H   0  0  0  0  0  0  0  0  0  0  0  0
    2.8340   -1.2756   28.9524 H   0  0  0  0  0  0  0  0  0  0  0  0
    2.3970   -0.2536   30.3160 H   0  0  0  0  0  0  0  0  0  0  0  0
    0.7690   -2.4690   29.0126 H   0  0  0  0  0  0  0  0  0  0  0  0
   -1.2872   -1.9428   27.9650 H   0  0  0  0  0  0  0  0  0  0  0  0
   -2.5600   -0.3068   26.7135 H   0  0  0  0  0  0  0  0  0  0  0  0
   -3.2905    1.9686   26.3753 H   0  0  0  0  0  0  0  0  0  0  0  0
   -2.7243    3.2159   27.5040 H   0  0  0  0  0  0  0  0  0  0  0  0
   -2.2152    3.6811   25.3708 H   0  0  0  0  0  0  0  0  0  0  0  0
   -0.3104    2.8809   28.5096 H   0  0  0  0  0  0  0  0  0  0  0  0
    1.0334    1.2519   29.7305 H   0  0  0  0  0  0  0  0  0  0  0  0
   -0.9047   -2.1568   30.7627 H   0  0  0  0  0  0  0  0  0  0  0  0
    0.0113   -1.0937   31.7126 H   0  0  0  0  0  0  0  0  0  0  0  0
  1  2  1  0
  2  3  2  0
  3  4  1  0
  4  5  2  0
  5  6  1  0
  6  7  1  0
  7  8  1  0
  8  9  2  0
  8 10  1  0
 10 11  1  0
 11 12  1  0
 12 13  1  0
 13 14  1  0
 14 15  1  0
 15 16  2  0
 16 17  1  0
 17 18  2  0
 18 19  1  0
 19 20  1  0
 18 21  1  0
 21 22  2  0
 14 23  1  0
  6  2  1  0
 23 10  1  0
 22 15  1  0
  1 24  1  0
  1 25  1  0
  1 26  1  0
  5 27  1  0
  7 28  1  0
  7 29  1  0
 11 30  1  0
 11 31  1  0
 12 32  1  0
 12 33  1  0
 13 34  1  0
 13 35  1  0
 14 36  1  0
 16 37  1  0
 17 38  1  0
 19 39  1  0
 19 40  1  0
 20 41  1  0
 21 42  1  0
 22 43  1  0
 23 44  1  0
 23 45  1  0
M  END
>  <Energy>  (332) 
114.056559950116

>  <compound_id>  (332) 
4031

>  <target_id>  (332) 
1

>  <reference_id>  (332) 
141

>  <inspiration_ids>  (332) 
[141, 194]

>  <energy_score>  (332) 
53.61109275891317

>  <distance_score>  (332) 
1.064463928270847

>  <path>  (332) 
/opt/xchem-fragalysis-2/maxwin/BulkDock/SCRATCH/505735/C4031-P141/C4031-P141.minimised.mol

>  <scratch_subdir>  (332) 
/opt/xchem-fragalysis-2/maxwin/BulkDock/SCRATCH/505735/C4031-P141

>  <fragmenstein_runtime>  (332) 
5.2170281410217285

>  <fragmenstein_outcome>  (332) 
too moved

>  <fragmenstein_mode>  (332) 
expansion

>  <fragmenstein_error>  (332) 


$$$$
C4031-P194
     RDKit          3D

 45 47  0  0  0  0  0  0  0  0999 V2000
   -0.8891   -6.8841   34.2879 C   0  0  0  0  0  0  0  0  0  0  0  0
   -0.8699   -7.2371   32.8530 C   0  0  0  0  0  0  0  0  0  0  0  0
   -1.6302   -8.1302   32.2534 N   0  0  0  0  0  0  0  0  0  0  0  0
   -1.2530   -8.2145   30.9394 N   0  0  0  0  0  0  0  0  0  0  0  0
   -0.2636   -7.3756   30.7673 C   0  0  0  0  0  0  0  0  0  0  0  0
   -0.0240   -6.6967   31.9231 N   0  0  0  0  0  0  0  0  0  0  0  0
    0.9733   -5.6668   32.1188 C   0  0  0  0  0  0  0  0  0  0  0  0
    0.9146   -4.6085   31.0246 C   0  0  0  0  0  0  0  0  0  0  0  0
    1.0870   -4.8629   29.8884 O   0  0  0  0  0  0  0  0  0  0  0  0
    0.5161   -3.3010   31.6902 N   0  0  0  0  0  0  0  0  0  0  0  0
    1.7416   -2.4775   32.0647 C   0  0  0  0  0  0  0  0  0  0  0  0
    2.7852   -2.2137   30.9608 C   0  0  0  0  0  0  0  0  0  0  0  0
    2.2287   -1.2061   29.9796 C   0  0  0  0  0  0  0  0  0  0  0  0
    0.7663   -1.5575   29.7387 C   0  0  0  0  0  0  0  0  0  0  0  0
   -0.0374   -0.4731   29.0467 C   0  0  0  0  0  0  0  0  0  0  0  0
   -0.9915   -0.8619   28.1016 C   0  0  0  0  0  0  0  0  0  0  0  0
   -1.7169    0.0853   27.3798 C   0  0  0  0  0  0  0  0  0  0  0  0
   -1.5665    1.4480   27.6273 C   0  0  0  0  0  0  0  0  0  0  0  0
   -2.3414    2.4557   26.8222 C   0  0  0  0  0  0  0  0  0  0  0  0
   -1.5157    2.9580   25.7766 O   0  0  0  0  0  0  0  0  0  0  0  0
   -0.6449    1.8448   28.6005 C   0  0  0  0  0  0  0  0  0  0  0  0
    0.1096    0.8957   29.3037 C   0  0  0  0  0  0  0  0  0  0  0  0
    0.1220   -1.9639   31.0862 C   0  0  0  0  0  0  0  0  0  0  0  0
   -1.0508   -5.8121   34.4290 H   0  0  0  0  0  0  0  0  0  0  0  0
   -1.6930   -7.4179   34.8040 H   0  0  0  0  0  0  0  0  0  0  0  0
    0.0568   -7.1611   34.7637 H   0  0  0  0  0  0  0  0  0  0  0  0
    0.2948   -7.2293   29.8573 H   0  0  0  0  0  0  0  0  0  0  0  0
    0.8366   -5.2223   33.1080 H   0  0  0  0  0  0  0  0  0  0  0  0
    1.9572   -6.1443   32.0960 H   0  0  0  0  0  0  0  0  0  0  0  0
    2.2684   -3.1606   32.7511 H   0  0  0  0  0  0  0  0  0  0  0  0
    1.5574   -1.6180   32.7326 H   0  0  0  0  0  0  0  0  0  0  0  0
    3.7088   -1.8263   31.4060 H   0  0  0  0  0  0  0  0  0  0  0  0
    3.0522   -3.1403   30.4416 H   0  0  0  0  0  0  0  0  0  0  0  0
    2.8004   -1.2004   29.0448 H   0  0  0  0  0  0  0  0  0  0  0  0
    2.3402   -0.2112   30.4238 H   0  0  0  0  0  0  0  0  0  0  0  0
    0.7631   -2.4357   29.0785 H   0  0  0  0  0  0  0  0  0  0  0  0
   -1.1583   -1.9145   27.8764 H   0  0  0  0  0  0  0  0  0  0  0  0
   -2.3777   -0.2645   26.5909 H   0  0  0  0  0  0  0  0  0  0  0  0
   -3.2426    2.0174   26.3816 H   0  0  0  0  0  0  0  0  0  0  0  0
   -2.6507    3.2957   27.4512 H   0  0  0  0  0  0  0  0  0  0  0  0
   -0.6298    3.0747   26.1552 H   0  0  0  0  0  0  0  0  0  0  0  0
   -0.5068    2.9028   28.8164 H   0  0  0  0  0  0  0  0  0  0  0  0
    0.8108    1.2579   30.0494 H   0  0  0  0  0  0  0  0  0  0  0  0
   -0.9250   -2.1905   30.8220 H   0  0  0  0  0  0  0  0  0  0  0  0
   -0.0302   -1.1392   31.8052 H   0  0  0  0  0  0  0  0  0  0  0  0
  1  2  1  0
  2  3  2  0
  3  4  1  0
  4  5  2  0
  5  6  1  0
  6  7  1  0
  7  8  1  0
  8  9  2  0
  8 10  1  0
 10 11  1  0
 11 12  1  0
 12 13  1  0
 13 14  1  0
 14 15  1  0
 15 16  2  0
 16 17  1  0
 17 18  2  0
 18 19  1  0
 19 20  1  0
 18 21  1  0
 21 22  2  0
 14 23  1  0
  6  2  1  0
 23 10  1  0
 22 15  1  0
  1 24  1  0
  1 25  1  0
  1 26  1  0
  5 27  1  0
  7 28  1  0
  7 29  1  0
 11 30  1  0
 11 31  1  0
 12 32  1  0
 12 33  1  0
 13 34  1  0
 13 35  1  0
 14 36  1  0
 16 37  1  0
 17 38  1  0
 19 39  1  0
 19 40  1  0
 20 41  1  0
 21 42  1  0
 22 43  1  0
 23 44  1  0
 23 45  1  0
M  END
>  <Energy>  (333) 
113.18439994970014

>  <compound_id>  (333) 
4031

>  <target_id>  (333) 
1

>  <reference_id>  (333) 
194

>  <inspiration_ids>  (333) 
[141, 194]

>  <energy_score>  (333) 
52.73893275849497

>  <distance_score>  (333) 
1.0865254074142343

>  <path>  (333) 
/opt/xchem-fragalysis-2/maxwin/BulkDock/SCRATCH/505735/C4031-P194/C4031-P194.minimised.mol

>  <scratch_subdir>  (333) 
/opt/xchem-fragalysis-2/maxwin/BulkDock/SCRATCH/505735/C4031-P194

>  <fragmenstein_runtime>  (333) 
4.119714021682739

>  <fragmenstein_outcome>  (333) 
too moved

>  <fragmenstein_mode>  (333) 
expansion

>  <fragmenstein_error>  (333) 


$$$$
C4065-P141
     RDKit          3D

 56 59  0  0  0  0  0  0  0  0999 V2000
    2.4591   -1.9839   30.8303 C   0  0  0  0  0  0  0  0  0  0  0  0
    1.0132   -1.6182   30.4012 C   0  0  0  0  0  0  0  0  0  0  0  0
    0.9417   -0.1190   29.9964 C   0  0  0  0  0  0  0  0  0  0  0  0
    0.4169    0.2683   28.7501 C   0  0  0  0  0  0  0  0  0  0  0  0
    0.3560    1.6068   28.3640 C   0  0  0  0  0  0  0  0  0  0  0  0
    0.8591    2.6139   29.1895 C   0  0  0  0  0  0  0  0  0  0  0  0
    1.3936    2.2715   30.4430 C   0  0  0  0  0  0  0  0  0  0  0  0
    1.3533    0.9235   30.8658 C   0  0  0  0  0  0  0  0  0  0  0  0
    1.7822    0.6019   32.1334 O   0  0  0  0  0  0  0  0  0  0  0  0
    0.8678    1.0130   33.1502 C   0  0  0  0  0  0  0  0  0  0  0  0
    1.5152    1.8791   34.0651 O   0  0  0  0  0  0  0  0  0  0  0  0
    1.9996    3.3472   31.3186 C   0  0  0  0  0  0  0  0  0  0  0  0
    2.4582    4.5715   30.5296 C   0  0  0  0  0  0  0  0  0  0  0  0
    1.3136    5.0840   29.6714 C   0  0  0  0  0  0  0  0  0  0  0  0
    0.8790    4.0293   28.6573 C   0  0  0  0  0  0  0  0  0  0  0  0
    0.6750   -2.5938   29.2567 C   0  0  0  0  0  0  0  0  0  0  0  0
   -0.8187   -2.8089   29.1592 C   0  0  0  0  0  0  0  0  0  0  0  0
   -1.5182   -2.4012   30.4523 C   0  0  0  0  0  0  0  0  0  0  0  0
   -0.9666   -2.9893   31.7211 N   0  0  0  0  0  0  0  0  0  0  0  0
   -0.2349   -4.2023   31.9509 C   0  0  0  0  0  0  0  0  0  0  0  0
    0.2004   -5.0109   31.1749 O   0  0  0  0  0  0  0  0  0  0  0  0
   -0.0542   -4.3626   33.4583 C   0  0  0  0  0  0  0  0  0  0  0  0
    0.4093   -5.6786   33.8293 N   0  0  0  0  0  0  0  0  0  0  0  0
    1.6470   -6.1905   33.5956 C   0  0  0  0  0  0  0  0  0  0  0  0
    1.7576   -7.3520   34.1964 N   0  0  0  0  0  0  0  0  0  0  0  0
    0.5611   -7.6038   34.8282 N   0  0  0  0  0  0  0  0  0  0  0  0
   -0.2436   -6.5947   34.5883 C   0  0  0  0  0  0  0  0  0  0  0  0
   -0.0067   -1.8112   31.5887 C   0  0  0  0  0  0  0  0  0  0  0  0
    2.5392   -3.0477   31.0844 H   0  0  0  0  0  0  0  0  0  0  0  0
    3.1690   -1.7795   30.0199 H   0  0  0  0  0  0  0  0  0  0  0  0
    2.8071   -1.4409   31.7117 H   0  0  0  0  0  0  0  0  0  0  0  0
    0.0432   -0.4478   28.0240 H   0  0  0  0  0  0  0  0  0  0  0  0
   -0.0582    1.8590   27.3890 H   0  0  0  0  0  0  0  0  0  0  0  0
   -0.0273    1.5143   32.7627 H   0  0  0  0  0  0  0  0  0  0  0  0
    0.5436    0.1290   33.7071 H   0  0  0  0  0  0  0  0  0  0  0  0
    2.2858    1.3812   34.3848 H   0  0  0  0  0  0  0  0  0  0  0  0
    1.2504    3.6576   32.0564 H   0  0  0  0  0  0  0  0  0  0  0  0
    2.8681    2.9500   31.8566 H   0  0  0  0  0  0  0  0  0  0  0  0
    3.3165    4.3166   29.8954 H   0  0  0  0  0  0  0  0  0  0  0  0
    2.7875    5.3537   31.2228 H   0  0  0  0  0  0  0  0  0  0  0  0
    0.4724    5.3479   30.3210 H   0  0  0  0  0  0  0  0  0  0  0  0
    1.6070    6.0009   29.1482 H   0  0  0  0  0  0  0  0  0  0  0  0
    1.5767    4.0539   27.8100 H   0  0  0  0  0  0  0  0  0  0  0  0
   -0.1136    4.2936   28.2730 H   0  0  0  0  0  0  0  0  0  0  0  0
    1.1062   -2.2946   28.2956 H   0  0  0  0  0  0  0  0  0  0  0  0
    1.1332   -3.5722   29.4466 H   0  0  0  0  0  0  0  0  0  0  0  0
   -1.0095   -3.8645   28.9381 H   0  0  0  0  0  0  0  0  0  0  0  0
   -1.2501   -2.2425   28.3278 H   0  0  0  0  0  0  0  0  0  0  0  0
   -1.8347   -1.3439   30.4831 H   0  0  0  0  0  0  0  0  0  0  0  0
   -2.4947   -2.8913   30.4041 H   0  0  0  0  0  0  0  0  0  0  0  0
    0.6974   -3.6533   33.8196 H   0  0  0  0  0  0  0  0  0  0  0  0
   -0.9951   -4.1682   33.9772 H   0  0  0  0  0  0  0  0  0  0  0  0
    2.4071   -5.6945   33.0089 H   0  0  0  0  0  0  0  0  0  0  0  0
   -1.2553   -6.4840   34.9506 H   0  0  0  0  0  0  0  0  0  0  0  0
   -0.5629   -0.8918   31.8430 H   0  0  0  0  0  0  0  0  0  0  0  0
    0.6227   -1.9102   32.4853 H   0  0  0  0  0  0  0  0  0  0  0  0
  1  2  1  0
  2  3  1  0
  3  4  2  0
  4  5  1  0
  5  6  2  0
  6  7  1  0
  7  8  2  0
  8  9  1  0
  9 10  1  0
 10 11  1  0
  7 12  1  0
 12 13  1  0
 13 14  1  0
 14 15  1  0
  2 16  1  0
 16 17  1  0
 17 18  1  0
 18 19  1  0
 19 20  1  0
 20 21  2  0
 20 22  1  0
 22 23  1  0
 23 24  1  0
 24 25  2  0
 25 26  1  0
 26 27  2  0
 19 28  1  0
 28  2  1  0
  8  3  1  0
 27 23  1  0
 15  6  1  0
  1 29  1  0
  1 30  1  0
  1 31  1  0
  4 32  1  0
  5 33  1  0
 10 34  1  0
 10 35  1  0
 11 36  1  0
 12 37  1  0
 12 38  1  0
 13 39  1  0
 13 40  1  0
 14 41  1  0
 14 42  1  0
 15 43  1  0
 15 44  1  0
 16 45  1  0
 16 46  1  0
 17 47  1  0
 17 48  1  0
 18 49  1  0
 18 50  1  0
 22 51  1  0
 22 52  1  0
 24 53  1  0
 27 54  1  0
 28 55  1  0
 28 56  1  0
M  END
>  <Energy>  (334) 
116.65251738937106

>  <compound_id>  (334) 
4065

>  <target_id>  (334) 
1

>  <reference_id>  (334) 
141

>  <inspiration_ids>  (334) 
[141, 197]

>  <energy_score>  (334) 
-9.645170018158751

>  <distance_score>  (334) 
2.627784307885692

>  <path>  (334) 
/opt/xchem-fragalysis-2/maxwin/BulkDock/SCRATCH/505735/C4065-P141/C4065-P141.minimised.mol

>  <scratch_subdir>  (334) 
/opt/xchem-fragalysis-2/maxwin/BulkDock/SCRATCH/505735/C4065-P141

>  <fragmenstein_runtime>  (334) 
8.964463949203491

>  <fragmenstein_outcome>  (334) 
too moved

>  <fragmenstein_mode>  (334) 
expansion

>  <fragmenstein_error>  (334) 


$$$$
C4065-P197
     RDKit          3D

 56 59  0  0  0  0  0  0  0  0999 V2000
    2.8541   -2.2688   31.4009 C   0  0  0  0  0  0  0  0  0  0  0  0
    1.6016   -1.9249   30.5419 C   0  0  0  0  0  0  0  0  0  0  0  0
    1.2693   -0.4111   30.6792 C   0  0  0  0  0  0  0  0  0  0  0  0
    0.9894    0.3670   29.5440 C   0  0  0  0  0  0  0  0  0  0  0  0
    0.8500    1.7520   29.6257 C   0  0  0  0  0  0  0  0  0  0  0  0
    0.9887    2.4175   30.8445 C   0  0  0  0  0  0  0  0  0  0  0  0
    1.1752    1.6676   32.0159 C   0  0  0  0  0  0  0  0  0  0  0  0
    1.2352    0.2593   31.9259 C   0  0  0  0  0  0  0  0  0  0  0  0
    1.3319   -0.4700   33.0855 O   0  0  0  0  0  0  0  0  0  0  0  0
    0.0607   -0.6318   33.7109 C   0  0  0  0  0  0  0  0  0  0  0  0
    0.0385   -1.8867   34.3745 O   0  0  0  0  0  0  0  0  0  0  0  0
    1.3152    2.3686   33.3494 C   0  0  0  0  0  0  0  0  0  0  0  0
    1.7721    3.8209   33.2267 C   0  0  0  0  0  0  0  0  0  0  0  0
    0.9017    4.5569   32.2196 C   0  0  0  0  0  0  0  0  0  0  0  0
    1.0419    3.9272   30.8372 C   0  0  0  0  0  0  0  0  0  0  0  0
    1.9803   -2.3419   29.1021 C   0  0  0  0  0  0  0  0  0  0  0  0
    0.7819   -2.8515   28.3336 C   0  0  0  0  0  0  0  0  0  0  0  0
   -0.3603   -3.2789   29.2523 C   0  0  0  0  0  0  0  0  0  0  0  0
   -0.0303   -4.0921   30.4771 N   0  0  0  0  0  0  0  0  0  0  0  0
    1.0308   -5.0184   30.7256 C   0  0  0  0  0  0  0  0  0  0  0  0
    1.9834   -5.3178   30.0521 O   0  0  0  0  0  0  0  0  0  0  0  0
    0.7601   -5.7523   32.0303 C   0  0  0  0  0  0  0  0  0  0  0  0
   -0.1343   -6.8660   31.8271 N   0  0  0  0  0  0  0  0  0  0  0  0
   -0.2217   -7.6680   30.7334 C   0  0  0  0  0  0  0  0  0  0  0  0
   -1.1993   -8.5245   30.8977 N   0  0  0  0  0  0  0  0  0  0  0  0
   -1.7308   -8.3062   32.1423 N   0  0  0  0  0  0  0  0  0  0  0  0
   -1.0721   -7.3163   32.6982 C   0  0  0  0  0  0  0  0  0  0  0  0
    0.3332   -2.7176   31.0218 C   0  0  0  0  0  0  0  0  0  0  0  0
    3.2105   -3.2877   31.2172 H   0  0  0  0  0  0  0  0  0  0  0  0
    3.6828   -1.5882   31.1712 H   0  0  0  0  0  0  0  0  0  0  0  0
    2.6737   -2.2216   32.4770 H   0  0  0  0  0  0  0  0  0  0  0  0
    0.9131   -0.0650   28.5506 H   0  0  0  0  0  0  0  0  0  0  0  0
    0.6888    2.3202   28.7136 H   0  0  0  0  0  0  0  0  0  0  0  0
   -0.0989    0.1529   34.4564 H   0  0  0  0  0  0  0  0  0  0  0  0
   -0.7693   -0.6183   32.9952 H   0  0  0  0  0  0  0  0  0  0  0  0
    0.6012   -1.7723   35.1582 H   0  0  0  0  0  0  0  0  0  0  0  0
    0.3409    2.3450   33.8521 H   0  0  0  0  0  0  0  0  0  0  0  0
    2.0351    1.8384   33.9836 H   0  0  0  0  0  0  0  0  0  0  0  0
    2.8219    3.8607   32.9099 H   0  0  0  0  0  0  0  0  0  0  0  0
    1.7110    4.3096   34.2056 H   0  0  0  0  0  0  0  0  0  0  0  0
   -0.1429    4.5187   32.5486 H   0  0  0  0  0  0  0  0  0  0  0  0
    1.1834    5.6147   32.1736 H   0  0  0  0  0  0  0  0  0  0  0  0
    2.0107    4.2217   30.4129 H   0  0  0  0  0  0  0  0  0  0  0  0
    0.2664    4.3255   30.1752 H   0  0  0  0  0  0  0  0  0  0  0  0
    2.5089   -1.5581   28.5470 H   0  0  0  0  0  0  0  0  0  0  0  0
    2.7086   -3.1623   29.1226 H   0  0  0  0  0  0  0  0  0  0  0  0
    1.0992   -3.6962   27.7100 H   0  0  0  0  0  0  0  0  0  0  0  0
    0.4110   -2.0936   27.6344 H   0  0  0  0  0  0  0  0  0  0  0  0
   -1.1426   -2.5109   29.3795 H   0  0  0  0  0  0  0  0  0  0  0  0
   -0.9085   -4.0195   28.6543 H   0  0  0  0  0  0  0  0  0  0  0  0
    1.6995   -6.1445   32.4329 H   0  0  0  0  0  0  0  0  0  0  0  0
    0.3198   -5.0842   32.7769 H   0  0  0  0  0  0  0  0  0  0  0  0
    0.4290   -7.6060   29.8746 H   0  0  0  0  0  0  0  0  0  0  0  0
   -1.2498   -6.9061   33.6831 H   0  0  0  0  0  0  0  0  0  0  0  0
   -0.5679   -2.0879   31.1344 H   0  0  0  0  0  0  0  0  0  0  0  0
    0.5332   -2.9441   32.0786 H   0  0  0  0  0  0  0  0  0  0  0  0
  1  2  1  0
  2  3  1  0
  3  4  2  0
  4  5  1  0
  5  6  2  0
  6  7  1  0
  7  8  2  0
  8  9  1  0
  9 10  1  0
 10 11  1  0
  7 12  1  0
 12 13  1  0
 13 14  1  0
 14 15  1  0
  2 16  1  0
 16 17  1  0
 17 18  1  0
 18 19  1  0
 19 20  1  0
 20 21  2  0
 20 22  1  0
 22 23  1  0
 23 24  1  0
 24 25  2  0
 25 26  1  0
 26 27  2  0
 19 28  1  0
 28  2  1  0
  8  3  1  0
 27 23  1  0
 15  6  1  0
  1 29  1  0
  1 30  1  0
  1 31  1  0
  4 32  1  0
  5 33  1  0
 10 34  1  0
 10 35  1  0
 11 36  1  0
 12 37  1  0
 12 38  1  0
 13 39  1  0
 13 40  1  0
 14 41  1  0
 14 42  1  0
 15 43  1  0
 15 44  1  0
 16 45  1  0
 16 46  1  0
 17 47  1  0
 17 48  1  0
 18 49  1  0
 18 50  1  0
 22 51  1  0
 22 52  1  0
 24 53  1  0
 27 54  1  0
 28 55  1  0
 28 56  1  0
M  END
>  <Energy>  (335) 
113.31641844044489

>  <compound_id>  (335) 
4065

>  <target_id>  (335) 
1

>  <reference_id>  (335) 
197

>  <inspiration_ids>  (335) 
[141, 197]

>  <energy_score>  (335) 
-12.981268967083508

>  <distance_score>  (335) 
2.2577810325296004

>  <path>  (335) 
/opt/xchem-fragalysis-2/maxwin/BulkDock/SCRATCH/505735/C4065-P197/C4065-P197.minimised.mol

>  <scratch_subdir>  (335) 
/opt/xchem-fragalysis-2/maxwin/BulkDock/SCRATCH/505735/C4065-P197

>  <fragmenstein_runtime>  (335) 
7.3404152393341064

>  <fragmenstein_outcome>  (335) 
too moved

>  <fragmenstein_mode>  (335) 
expansion

>  <fragmenstein_error>  (335) 


$$$$
C4066-P141
     RDKit          3D

 65 68  0  0  0  0  0  0  0  0999 V2000
    3.5265    5.0109   29.2432 C   0  0  0  0  0  0  0  0  0  0  0  0
    2.1317    4.4216   29.4128 C   0  0  0  0  0  0  0  0  0  0  0  0
    1.8941    3.1636   28.5469 C   0  0  0  0  0  0  0  0  0  0  0  0
    2.7564    1.9429   28.8824 C   0  0  0  0  0  0  0  0  0  0  0  0
    3.2102    1.6582   30.1774 C   0  0  0  0  0  0  0  0  0  0  0  0
    3.6179    0.3670   30.5186 C   0  0  0  0  0  0  0  0  0  0  0  0
    3.5969   -0.6602   29.5643 C   0  0  0  0  0  0  0  0  0  0  0  0
    3.5492   -2.1084   30.0621 C   0  0  0  0  0  0  0  0  0  0  0  0
    4.0121   -3.1605   29.0698 C   0  0  0  0  0  0  0  0  0  0  0  0
    2.8485   -3.6182   28.2169 C   0  0  0  0  0  0  0  0  0  0  0  0
    1.5173   -3.1392   28.8021 C   0  0  0  0  0  0  0  0  0  0  0  0
    1.2288   -3.6028   30.1917 N   0  0  0  0  0  0  0  0  0  0  0  0
    1.6996   -4.7311   30.9078 C   0  0  0  0  0  0  0  0  0  0  0  0
    2.5205   -5.5546   30.6130 O   0  0  0  0  0  0  0  0  0  0  0  0
    0.9070   -4.8896   32.1984 C   0  0  0  0  0  0  0  0  0  0  0  0
    0.0329   -6.0490   32.1686 N   0  0  0  0  0  0  0  0  0  0  0  0
   -0.2852   -6.8489   31.1134 C   0  0  0  0  0  0  0  0  0  0  0  0
   -1.1680   -7.7450   31.4876 N   0  0  0  0  0  0  0  0  0  0  0  0
   -1.4092   -7.5491   32.8269 N   0  0  0  0  0  0  0  0  0  0  0  0
   -0.6857   -6.5269   33.2215 C   0  0  0  0  0  0  0  0  0  0  0  0
    2.0669   -2.3668   30.5405 C   0  0  0  0  0  0  0  0  0  0  0  0
    3.3717   -0.3142   28.2262 C   0  0  0  0  0  0  0  0  0  0  0  0
    2.9420    0.9698   27.8919 C   0  0  0  0  0  0  0  0  0  0  0  0
    0.4352    2.8579   28.5668 N   0  0  0  0  0  0  0  0  0  0  0  0
   -0.3418    3.3669   27.4495 C   0  0  0  0  0  0  0  0  0  0  0  0
   -0.1643    2.5308   26.3253 O   0  0  0  0  0  0  0  0  0  0  0  0
   -0.0640    1.6985   29.1442 C   0  0  0  0  0  0  0  0  0  0  0  0
    0.0787    1.4542   30.5089 C   0  0  0  0  0  0  0  0  0  0  0  0
   -0.4945    0.3218   31.0848 C   0  0  0  0  0  0  0  0  0  0  0  0
   -1.1731   -0.5728   30.2743 C   0  0  0  0  0  0  0  0  0  0  0  0
   -1.2560   -0.2917   28.9188 C   0  0  0  0  0  0  0  0  0  0  0  0
   -1.8490   -1.2838   27.9777 C   0  0  0  0  0  0  0  0  0  0  0  0
   -0.7336    0.8255   28.3625 N   0  0  0  0  0  0  0  0  0  0  0  0
    4.3047    4.3205   29.5799 H   0  0  0  0  0  0  0  0  0  0  0  0
    3.6188    5.9293   29.8318 H   0  0  0  0  0  0  0  0  0  0  0  0
    3.7197    5.2623   28.1954 H   0  0  0  0  0  0  0  0  0  0  0  0
    1.9420    4.2180   30.4727 H   0  0  0  0  0  0  0  0  0  0  0  0
    1.4072    5.1955   29.1271 H   0  0  0  0  0  0  0  0  0  0  0  0
    2.1687    3.4475   27.5200 H   0  0  0  0  0  0  0  0  0  0  0  0
    3.1316    2.3951   30.9717 H   0  0  0  0  0  0  0  0  0  0  0  0
    3.8327    0.1482   31.5623 H   0  0  0  0  0  0  0  0  0  0  0  0
    4.2204   -2.1657   30.9305 H   0  0  0  0  0  0  0  0  0  0  0  0
    4.3923   -4.0248   29.6286 H   0  0  0  0  0  0  0  0  0  0  0  0
    4.8505   -2.8190   28.4517 H   0  0  0  0  0  0  0  0  0  0  0  0
    2.8619   -4.7116   28.1301 H   0  0  0  0  0  0  0  0  0  0  0  0
    2.9629   -3.2460   27.1963 H   0  0  0  0  0  0  0  0  0  0  0  0
    0.7657   -3.7106   28.2395 H   0  0  0  0  0  0  0  0  0  0  0  0
    1.2273   -2.1088   28.5439 H   0  0  0  0  0  0  0  0  0  0  0  0
    1.6081   -5.0160   33.0300 H   0  0  0  0  0  0  0  0  0  0  0  0
    0.2743   -4.0176   32.3958 H   0  0  0  0  0  0  0  0  0  0  0  0
    0.1286   -6.7512   30.1205 H   0  0  0  0  0  0  0  0  0  0  0  0
   -0.6650   -6.1079   34.2181 H   0  0  0  0  0  0  0  0  0  0  0  0
    2.1557   -2.4249   31.6385 H   0  0  0  0  0  0  0  0  0  0  0  0
    1.4281   -1.4806   30.4311 H   0  0  0  0  0  0  0  0  0  0  0  0
    3.3981   -1.0475   27.4271 H   0  0  0  0  0  0  0  0  0  0  0  0
    2.6362    1.1712   26.8659 H   0  0  0  0  0  0  0  0  0  0  0  0
   -0.0221    4.3792   27.1800 H   0  0  0  0  0  0  0  0  0  0  0  0
   -1.4101    3.4270   27.6928 H   0  0  0  0  0  0  0  0  0  0  0  0
   -0.3761    1.6571   26.7191 H   0  0  0  0  0  0  0  0  0  0  0  0
    0.5855    2.1787   31.1362 H   0  0  0  0  0  0  0  0  0  0  0  0
   -0.3986    0.1428   32.1504 H   0  0  0  0  0  0  0  0  0  0  0  0
   -1.6002   -1.4826   30.6804 H   0  0  0  0  0  0  0  0  0  0  0  0
   -2.1499   -0.8001   27.0450 H   0  0  0  0  0  0  0  0  0  0  0  0
   -2.7243   -1.7597   28.4089 H   0  0  0  0  0  0  0  0  0  0  0  0
   -1.1106   -2.0590   27.7769 H   0  0  0  0  0  0  0  0  0  0  0  0
  1  2  1  0
  2  3  1  0
  3  4  1  0
  4  5  2  0
  5  6  1  0
  6  7  2  0
  7  8  1  0
  8  9  1  0
  9 10  1  0
 10 11  1  0
 11 12  1  0
 12 13  1  0
 13 14  2  0
 13 15  1  0
 15 16  1  0
 16 17  1  0
 17 18  2  0
 18 19  1  0
 19 20  2  0
 12 21  1  0
  7 22  1  0
 22 23  2  0
  3 24  1  0
 24 25  1  0
 25 26  1  0
 24 27  1  0
 27 28  2  0
 28 29  1  0
 29 30  2  0
 30 31  1  0
 31 32  1  0
 31 33  2  0
 23  4  1  0
 33 27  1  0
 21  8  1  0
 20 16  1  0
  1 34  1  0
  1 35  1  0
  1 36  1  0
  2 37  1  0
  2 38  1  0
  3 39  1  0
  5 40  1  0
  6 41  1  0
  8 42  1  0
  9 43  1  0
  9 44  1  0
 10 45  1  0
 10 46  1  0
 11 47  1  0
 11 48  1  0
 15 49  1  0
 15 50  1  0
 17 51  1  0
 20 52  1  0
 21 53  1  0
 21 54  1  0
 22 55  1  0
 23 56  1  0
 25 57  1  0
 25 58  1  0
 26 59  1  0
 28 60  1  0
 29 61  1  0
 30 62  1  0
 32 63  1  0
 32 64  1  0
 32 65  1  0
M  END
>  <Energy>  (336) 
68.812869107409384

>  <compound_id>  (336) 
4066

>  <target_id>  (336) 
1

>  <reference_id>  (336) 
141

>  <inspiration_ids>  (336) 
[141, 198]

>  <energy_score>  (336) 
30.699309340762056

>  <distance_score>  (336) 
2.7979738922413238

>  <path>  (336) 
/opt/xchem-fragalysis-2/maxwin/BulkDock/SCRATCH/505735/C4066-P141/C4066-P141.minimised.mol

>  <scratch_subdir>  (336) 
/opt/xchem-fragalysis-2/maxwin/BulkDock/SCRATCH/505735/C4066-P141

>  <fragmenstein_runtime>  (336) 
15.796615839004517

>  <fragmenstein_outcome>  (336) 
too moved

>  <fragmenstein_mode>  (336) 
expansion

>  <fragmenstein_error>  (336) 


$$$$
C4066-P198
     RDKit          3D

 65 68  0  0  0  0  0  0  0  0999 V2000
    2.3918    4.0628   27.0003 C   0  0  0  0  0  0  0  0  0  0  0  0
    1.1632    3.6464   27.8015 C   0  0  0  0  0  0  0  0  0  0  0  0
    0.6951    2.2050   27.4855 C   0  0  0  0  0  0  0  0  0  0  0  0
    1.5842    1.0727   28.0438 C   0  0  0  0  0  0  0  0  0  0  0  0
    2.6127    1.2292   28.9692 C   0  0  0  0  0  0  0  0  0  0  0  0
    3.2049    0.1155   29.5975 C   0  0  0  0  0  0  0  0  0  0  0  0
    2.7653   -1.1912   29.3383 C   0  0  0  0  0  0  0  0  0  0  0  0
    3.1554   -2.4322   30.1388 C   0  0  0  0  0  0  0  0  0  0  0  0
    4.0762   -2.1706   31.3092 C   0  0  0  0  0  0  0  0  0  0  0  0
    3.2463   -1.5713   32.4249 C   0  0  0  0  0  0  0  0  0  0  0  0
    1.8011   -2.0165   32.2800 C   0  0  0  0  0  0  0  0  0  0  0  0
    1.6533   -3.4955   32.1970 N   0  0  0  0  0  0  0  0  0  0  0  0
    0.4329   -4.3805   32.3955 C   0  0  0  0  0  0  0  0  0  0  0  0
   -0.6926   -4.0939   32.5820 O   0  0  0  0  0  0  0  0  0  0  0  0
    0.9407   -5.8133   32.4201 C   0  0  0  0  0  0  0  0  0  0  0  0
   -0.0684   -6.7413   31.9745 N   0  0  0  0  0  0  0  0  0  0  0  0
   -0.2587   -7.1618   30.6981 C   0  0  0  0  0  0  0  0  0  0  0  0
   -1.2545   -8.0134   30.6639 N   0  0  0  0  0  0  0  0  0  0  0  0
   -1.7127   -8.1628   31.9503 N   0  0  0  0  0  0  0  0  0  0  0  0
   -0.9879   -7.3931   32.7301 C   0  0  0  0  0  0  0  0  0  0  0  0
    1.8705   -3.1690   30.6993 C   0  0  0  0  0  0  0  0  0  0  0  0
    1.8347   -1.3516   28.3205 C   0  0  0  0  0  0  0  0  0  0  0  0
    1.2559   -0.2434   27.7112 C   0  0  0  0  0  0  0  0  0  0  0  0
   -0.7532    2.1089   27.8836 N   0  0  0  0  0  0  0  0  0  0  0  0
   -1.7202    2.0140   26.8107 C   0  0  0  0  0  0  0  0  0  0  0  0
   -1.4899    3.0593   25.8795 O   0  0  0  0  0  0  0  0  0  0  0  0
   -1.0305    1.1776   28.8957 C   0  0  0  0  0  0  0  0  0  0  0  0
   -0.5199    1.3840   30.1739 C   0  0  0  0  0  0  0  0  0  0  0  0
   -0.7039    0.4307   31.1677 C   0  0  0  0  0  0  0  0  0  0  0  0
   -1.2849   -0.7750   30.8329 C   0  0  0  0  0  0  0  0  0  0  0  0
   -1.6750   -0.9534   29.5198 C   0  0  0  0  0  0  0  0  0  0  0  0
   -2.0049   -2.3054   29.0148 C   0  0  0  0  0  0  0  0  0  0  0  0
   -1.6433    0.0232   28.5887 N   0  0  0  0  0  0  0  0  0  0  0  0
    3.2560    3.4273   27.2098 H   0  0  0  0  0  0  0  0  0  0  0  0
    2.6666    5.0937   27.2454 H   0  0  0  0  0  0  0  0  0  0  0  0
    2.1884    4.0169   25.9254 H   0  0  0  0  0  0  0  0  0  0  0  0
    1.3515    3.7769   28.8731 H   0  0  0  0  0  0  0  0  0  0  0  0
    0.3613    4.3542   27.5541 H   0  0  0  0  0  0  0  0  0  0  0  0
    0.7548    2.1016   26.3961 H   0  0  0  0  0  0  0  0  0  0  0  0
    2.9445    2.2172   29.2763 H   0  0  0  0  0  0  0  0  0  0  0  0
    3.9750    0.3204   30.3356 H   0  0  0  0  0  0  0  0  0  0  0  0
    3.6711   -3.0998   29.4348 H   0  0  0  0  0  0  0  0  0  0  0  0
    4.4853   -3.1300   31.6546 H   0  0  0  0  0  0  0  0  0  0  0  0
    4.9428   -1.5485   31.0637 H   0  0  0  0  0  0  0  0  0  0  0  0
    3.2947   -0.4773   32.4240 H   0  0  0  0  0  0  0  0  0  0  0  0
    3.6554   -1.8949   33.3900 H   0  0  0  0  0  0  0  0  0  0  0  0
    1.1804   -1.3891   31.6308 H   0  0  0  0  0  0  0  0  0  0  0  0
    1.3365   -1.7940   33.2540 H   0  0  0  0  0  0  0  0  0  0  0  0
    1.8201   -5.9415   31.7826 H   0  0  0  0  0  0  0  0  0  0  0  0
    1.2174   -6.0728   33.4475 H   0  0  0  0  0  0  0  0  0  0  0  0
    0.3357   -6.8318   29.8610 H   0  0  0  0  0  0  0  0  0  0  0  0
   -1.0972   -7.2836   33.8000 H   0  0  0  0  0  0  0  0  0  0  0  0
    0.9146   -2.8402   30.2580 H   0  0  0  0  0  0  0  0  0  0  0  0
    1.9528   -4.1796   30.2662 H   0  0  0  0  0  0  0  0  0  0  0  0
    1.4593   -2.3336   28.0479 H   0  0  0  0  0  0  0  0  0  0  0  0
    0.4024   -0.4160   27.0647 H   0  0  0  0  0  0  0  0  0  0  0  0
   -2.7471    2.1255   27.1813 H   0  0  0  0  0  0  0  0  0  0  0  0
   -1.6579    1.0634   26.2753 H   0  0  0  0  0  0  0  0  0  0  0  0
   -1.7270    3.8605   26.3804 H   0  0  0  0  0  0  0  0  0  0  0  0
    0.0085    2.3056   30.3985 H   0  0  0  0  0  0  0  0  0  0  0  0
   -0.3371    0.6115   32.1724 H   0  0  0  0  0  0  0  0  0  0  0  0
   -1.3635   -1.5764   31.5599 H   0  0  0  0  0  0  0  0  0  0  0  0
   -2.8000   -2.1947   28.2791 H   0  0  0  0  0  0  0  0  0  0  0  0
   -2.3317   -2.9514   29.8293 H   0  0  0  0  0  0  0  0  0  0  0  0
   -1.1295   -2.7579   28.5409 H   0  0  0  0  0  0  0  0  0  0  0  0
  1  2  1  0
  2  3  1  0
  3  4  1  0
  4  5  2  0
  5  6  1  0
  6  7  2  0
  7  8  1  0
  8  9  1  0
  9 10  1  0
 10 11  1  0
 11 12  1  0
 12 13  1  0
 13 14  2  0
 13 15  1  0
 15 16  1  0
 16 17  1  0
 17 18  2  0
 18 19  1  0
 19 20  2  0
 12 21  1  0
  7 22  1  0
 22 23  2  0
  3 24  1  0
 24 25  1  0
 25 26  1  0
 24 27  1  0
 27 28  2  0
 28 29  1  0
 29 30  2  0
 30 31  1  0
 31 32  1  0
 31 33  2  0
 23  4  1  0
 33 27  1  0
 21  8  1  0
 20 16  1  0
  1 34  1  0
  1 35  1  0
  1 36  1  0
  2 37  1  0
  2 38  1  0
  3 39  1  0
  5 40  1  0
  6 41  1  0
  8 42  1  0
  9 43  1  0
  9 44  1  0
 10 45  1  0
 10 46  1  0
 11 47  1  0
 11 48  1  0
 15 49  1  0
 15 50  1  0
 17 51  1  0
 20 52  1  0
 21 53  1  0
 21 54  1  0
 22 55  1  0
 23 56  1  0
 25 57  1  0
 25 58  1  0
 26 59  1  0
 28 60  1  0
 29 61  1  0
 30 62  1  0
 32 63  1  0
 32 64  1  0
 32 65  1  0
M  END
>  <Energy>  (337) 
81.102675354025465

>  <compound_id>  (337) 
4066

>  <target_id>  (337) 
1

>  <reference_id>  (337) 
198

>  <inspiration_ids>  (337) 
[141, 198]

>  <energy_score>  (337) 
43.260254982023184

>  <distance_score>  (337) 
2.119548015806351

>  <path>  (337) 
/opt/xchem-fragalysis-2/maxwin/BulkDock/SCRATCH/505735/C4066-P198/C4066-P198.minimised.mol

>  <scratch_subdir>  (337) 
/opt/xchem-fragalysis-2/maxwin/BulkDock/SCRATCH/505735/C4066-P198

>  <fragmenstein_runtime>  (337) 
6.302978992462158

>  <fragmenstein_outcome>  (337) 
too moved

>  <fragmenstein_mode>  (337) 
expansion

>  <fragmenstein_error>  (337) 


$$$$
C4036-P141
     RDKit          3D

 59 62  0  0  0  0  0  0  0  0999 V2000
   -1.9014   -1.2972   27.9182 C   0  0  0  0  0  0  0  0  0  0  0  0
   -1.1143   -0.2793   28.6864 C   0  0  0  0  0  0  0  0  0  0  0  0
   -1.0271    1.0285   28.1889 C   0  0  0  0  0  0  0  0  0  0  0  0
   -0.1847    1.9528   28.7960 C   0  0  0  0  0  0  0  0  0  0  0  0
    0.5636    1.5723   29.8998 C   0  0  0  0  0  0  0  0  0  0  0  0
    1.3778    2.4625   30.4824 F   0  0  0  0  0  0  0  0  0  0  0  0
    0.4718    0.2909   30.4271 C   0  0  0  0  0  0  0  0  0  0  0  0
   -0.3831   -0.6524   29.8474 C   0  0  0  0  0  0  0  0  0  0  0  0
   -0.4129   -2.0256   30.4399 N   0  0  0  0  0  0  0  0  0  0  0  0
    0.2231   -2.8033   30.8694 C   0  0  0  0  0  0  0  0  0  0  0  0
    1.6965   -2.2046   30.6487 O   0  0  0  0  0  0  0  0  0  0  0  0
   -0.0860   -4.0658   31.4389 C   0  0  0  0  0  0  0  0  0  0  0  0
   -1.2956   -4.5897   31.4741 N   0  0  0  0  0  0  0  0  0  0  0  0
   -1.2014   -5.8487   32.0180 N   0  0  0  0  0  0  0  0  0  0  0  0
    0.0444   -6.0405   32.3702 C   0  0  0  0  0  0  0  0  0  0  0  0
    0.7836   -4.9523   32.0213 N   0  0  0  0  0  0  0  0  0  0  0  0
    2.2228   -4.8421   32.1473 C   0  0  0  0  0  0  0  0  0  0  0  0
    2.6852   -3.8041   33.1632 C   0  0  0  0  0  0  0  0  0  0  0  0
    1.9558   -3.4175   34.0367 O   0  0  0  0  0  0  0  0  0  0  0  0
    4.0678   -3.5077   32.9006 N   0  0  0  0  0  0  0  0  0  0  0  0
    5.0699   -2.7127   33.6973 C   0  0  0  0  0  0  0  0  0  0  0  0
    5.1750   -1.1926   33.8944 C   0  0  0  0  0  0  0  0  0  0  0  0
    5.8431   -0.6311   32.6500 C   0  0  0  0  0  0  0  0  0  0  0  0
    5.4095   -1.5102   31.4810 C   0  0  0  0  0  0  0  0  0  0  0  0
    6.4193   -2.3641   30.7371 C   0  0  0  0  0  0  0  0  0  0  0  0
    7.6867   -2.6988   31.2254 C   0  0  0  0  0  0  0  0  0  0  0  0
    8.5701   -3.4664   30.4562 C   0  0  0  0  0  0  0  0  0  0  0  0
    8.2027   -3.9156   29.1834 C   0  0  0  0  0  0  0  0  0  0  0  0
    9.1540   -4.6904   28.3188 C   0  0  0  0  0  0  0  0  0  0  0  0
    9.3982   -3.9375   27.1348 O   0  0  0  0  0  0  0  0  0  0  0  0
    6.9312   -3.6011   28.6967 C   0  0  0  0  0  0  0  0  0  0  0  0
    6.0569   -2.8327   29.4605 C   0  0  0  0  0  0  0  0  0  0  0  0
    4.1728   -2.3094   31.9685 C   0  0  0  0  0  0  0  0  0  0  0  0
   -2.2936   -0.8916   26.9829 H   0  0  0  0  0  0  0  0  0  0  0  0
   -1.2556   -2.1484   27.7028 H   0  0  0  0  0  0  0  0  0  0  0  0
   -2.7345   -1.6542   28.5126 H   0  0  0  0  0  0  0  0  0  0  0  0
   -1.5955    1.3239   27.3082 H   0  0  0  0  0  0  0  0  0  0  0  0
   -0.1099    2.9679   28.4167 H   0  0  0  0  0  0  0  0  0  0  0  0
    1.0703    0.0491   31.3002 H   0  0  0  0  0  0  0  0  0  0  0  0
   -1.2847   -1.6345   30.1249 H   0  0  0  0  0  0  0  0  0  0  0  0
    0.4381   -6.9224   32.8549 H   0  0  0  0  0  0  0  0  0  0  0  0
    2.5906   -5.8124   32.4937 H   0  0  0  0  0  0  0  0  0  0  0  0
    2.6237   -4.6569   31.1471 H   0  0  0  0  0  0  0  0  0  0  0  0
    6.0556   -3.1471   33.4767 H   0  0  0  0  0  0  0  0  0  0  0  0
    4.8664   -3.0862   34.7133 H   0  0  0  0  0  0  0  0  0  0  0  0
    4.1928   -0.7406   34.0764 H   0  0  0  0  0  0  0  0  0  0  0  0
    5.7949   -0.9640   34.7692 H   0  0  0  0  0  0  0  0  0  0  0  0
    5.5047    0.4025   32.5055 H   0  0  0  0  0  0  0  0  0  0  0  0
    6.9285   -0.5797   32.7713 H   0  0  0  0  0  0  0  0  0  0  0  0
    5.0462   -0.7983   30.7226 H   0  0  0  0  0  0  0  0  0  0  0  0
    8.0202   -2.3700   32.2057 H   0  0  0  0  0  0  0  0  0  0  0  0
    9.5541   -3.6983   30.8588 H   0  0  0  0  0  0  0  0  0  0  0  0
   10.1107   -4.8700   28.8196 H   0  0  0  0  0  0  0  0  0  0  0  0
    8.7236   -5.6582   28.0429 H   0  0  0  0  0  0  0  0  0  0  0  0
    9.6640   -3.0479   27.4321 H   0  0  0  0  0  0  0  0  0  0  0  0
    6.6242   -3.9351   27.7071 H   0  0  0  0  0  0  0  0  0  0  0  0
    5.0827   -2.5849   29.0392 H   0  0  0  0  0  0  0  0  0  0  0  0
    3.8035   -2.7597   31.0399 H   0  0  0  0  0  0  0  0  0  0  0  0
    3.3726   -1.5991   32.2422 H   0  0  0  0  0  0  0  0  0  0  0  0
  1  2  1  0
  2  3  2  0
  3  4  1  0
  4  5  2  0
  5  6  1  0
  5  7  1  0
  7  8  2  0
  8  9  1  0
  9 10  1  0
 10 11  2  0
 10 12  1  0
 12 13  2  0
 13 14  1  0
 14 15  2  0
 15 16  1  0
 16 17  1  0
 17 18  1  0
 18 19  2  0
 18 20  1  0
 20 21  1  0
 21 22  1  0
 22 23  1  0
 23 24  1  0
 24 25  1  0
 25 26  2  0
 26 27  1  0
 27 28  2  0
 28 29  1  0
 29 30  1  0
 28 31  1  0
 31 32  2  0
 24 33  1  0
  8  2  1  0
 16 12  1  0
 33 20  1  0
 32 25  1  0
  1 34  1  0
  1 35  1  0
  1 36  1  0
  3 37  1  0
  4 38  1  0
  7 39  1  0
  9 40  1  0
 15 41  1  0
 17 42  1  0
 17 43  1  0
 21 44  1  0
 21 45  1  0
 22 46  1  0
 22 47  1  0
 23 48  1  0
 23 49  1  0
 24 50  1  0
 26 51  1  0
 27 52  1  0
 29 53  1  0
 29 54  1  0
 30 55  1  0
 31 56  1  0
 32 57  1  0
 33 58  1  0
 33 59  1  0
M  END
>  <Energy>  (338) 
345.48019343162247

>  <compound_id>  (338) 
4036

>  <target_id>  (338) 
1

>  <reference_id>  (338) 
141

>  <inspiration_ids>  (338) 
[141, 199]

>  <energy_score>  (338) 
232.78139318406977

>  <distance_score>  (338) 
4.470935883833832

>  <path>  (338) 
/opt/xchem-fragalysis-2/maxwin/BulkDock/SCRATCH/505735/C4036-P141/C4036-P141.minimised.mol

>  <scratch_subdir>  (338) 
/opt/xchem-fragalysis-2/maxwin/BulkDock/SCRATCH/505735/C4036-P141

>  <fragmenstein_runtime>  (338) 
9.901760578155518

>  <fragmenstein_outcome>  (338) 
too moved

>  <fragmenstein_mode>  (338) 
expansion

>  <fragmenstein_error>  (338) 


$$$$
C4036-P199
     RDKit          3D

 59 62  0  0  0  0  0  0  0  0999 V2000
   -2.0151   -1.8090   29.6951 C   0  0  0  0  0  0  0  0  0  0  0  0
   -0.6187   -1.6683   29.1418 C   0  0  0  0  0  0  0  0  0  0  0  0
   -0.2557   -0.3726   28.7243 C   0  0  0  0  0  0  0  0  0  0  0  0
    1.0279   -0.1097   28.2724 C   0  0  0  0  0  0  0  0  0  0  0  0
    1.9507   -1.1398   28.2258 C   0  0  0  0  0  0  0  0  0  0  0  0
    3.1839   -0.8872   27.7642 F   0  0  0  0  0  0  0  0  0  0  0  0
    1.6289   -2.4305   28.6402 C   0  0  0  0  0  0  0  0  0  0  0  0
    0.3490   -2.7399   29.1171 C   0  0  0  0  0  0  0  0  0  0  0  0
    0.0788   -4.1494   29.6619 N   0  0  0  0  0  0  0  0  0  0  0  0
    0.5522   -4.9946   30.1765 C   0  0  0  0  0  0  0  0  0  0  0  0
    2.0928   -4.5348   30.2575 O   0  0  0  0  0  0  0  0  0  0  0  0
    0.0013   -6.1685   30.7645 C   0  0  0  0  0  0  0  0  0  0  0  0
   -0.3494   -7.2616   30.1133 N   0  0  0  0  0  0  0  0  0  0  0  0
   -0.8852   -8.1496   31.0146 N   0  0  0  0  0  0  0  0  0  0  0  0
   -0.8236   -7.5960   32.2042 C   0  0  0  0  0  0  0  0  0  0  0  0
   -0.2780   -6.3525   32.0988 N   0  0  0  0  0  0  0  0  0  0  0  0
   -0.0963   -5.3932   33.1784 C   0  0  0  0  0  0  0  0  0  0  0  0
   -0.7019   -4.0258   32.8403 C   0  0  0  0  0  0  0  0  0  0  0  0
   -1.6241   -3.9562   32.0650 O   0  0  0  0  0  0  0  0  0  0  0  0
    0.0001   -2.9959   33.5476 N   0  0  0  0  0  0  0  0  0  0  0  0
   -0.2584   -1.5160   33.6376 C   0  0  0  0  0  0  0  0  0  0  0  0
    0.5964   -0.7176   34.6196 C   0  0  0  0  0  0  0  0  0  0  0  0
    1.9919   -0.5674   34.0575 C   0  0  0  0  0  0  0  0  0  0  0  0
    2.3954   -1.9325   33.5254 C   0  0  0  0  0  0  0  0  0  0  0  0
    3.6868   -1.8700   32.7364 C   0  0  0  0  0  0  0  0  0  0  0  0
    3.7840   -1.1569   31.5349 C   0  0  0  0  0  0  0  0  0  0  0  0
    4.9856   -1.1173   30.8228 C   0  0  0  0  0  0  0  0  0  0  0  0
    6.1237   -1.7784   31.2993 C   0  0  0  0  0  0  0  0  0  0  0  0
    7.4062   -1.7721   30.5134 C   0  0  0  0  0  0  0  0  0  0  0  0
    7.6862   -0.4647   30.0305 O   0  0  0  0  0  0  0  0  0  0  0  0
    6.0277   -2.4963   32.4972 C   0  0  0  0  0  0  0  0  0  0  0  0
    4.8254   -2.5374   33.2095 C   0  0  0  0  0  0  0  0  0  0  0  0
    1.2047   -2.5120   32.7207 C   0  0  0  0  0  0  0  0  0  0  0  0
   -1.9909   -1.7670   30.7864 H   0  0  0  0  0  0  0  0  0  0  0  0
   -2.6639   -1.0012   29.3419 H   0  0  0  0  0  0  0  0  0  0  0  0
   -2.4808   -2.7351   29.3693 H   0  0  0  0  0  0  0  0  0  0  0  0
   -0.9806    0.4397   28.7435 H   0  0  0  0  0  0  0  0  0  0  0  0
    1.3091    0.8842   27.9410 H   0  0  0  0  0  0  0  0  0  0  0  0
    2.4081   -3.1809   28.5545 H   0  0  0  0  0  0  0  0  0  0  0  0
   -0.6961   -3.6211   29.3111 H   0  0  0  0  0  0  0  0  0  0  0  0
   -1.1656   -8.0404   33.1310 H   0  0  0  0  0  0  0  0  0  0  0  0
    0.9798   -5.3332   33.3660 H   0  0  0  0  0  0  0  0  0  0  0  0
   -0.5918   -5.7842   34.0725 H   0  0  0  0  0  0  0  0  0  0  0  0
   -0.4645   -1.0081   32.6801 H   0  0  0  0  0  0  0  0  0  0  0  0
   -1.2660   -1.5080   34.0834 H   0  0  0  0  0  0  0  0  0  0  0  0
    0.6328   -1.2350   35.5861 H   0  0  0  0  0  0  0  0  0  0  0  0
    0.1554    0.2700   34.7943 H   0  0  0  0  0  0  0  0  0  0  0  0
    1.9787    0.1862   33.2602 H   0  0  0  0  0  0  0  0  0  0  0  0
    2.6895   -0.2102   34.8234 H   0  0  0  0  0  0  0  0  0  0  0  0
    2.5509   -2.5971   34.3879 H   0  0  0  0  0  0  0  0  0  0  0  0
    2.9282   -0.6217   31.1320 H   0  0  0  0  0  0  0  0  0  0  0  0
    5.0332   -0.5613   29.8879 H   0  0  0  0  0  0  0  0  0  0  0  0
    8.2484   -2.0862   31.1387 H   0  0  0  0  0  0  0  0  0  0  0  0
    7.3215   -2.4567   29.6630 H   0  0  0  0  0  0  0  0  0  0  0  0
    8.5402   -0.5145   29.5715 H   0  0  0  0  0  0  0  0  0  0  0  0
    6.8909   -3.0298   32.8882 H   0  0  0  0  0  0  0  0  0  0  0  0
    4.7895   -3.0998   34.1397 H   0  0  0  0  0  0  0  0  0  0  0  0
    0.9476   -1.9660   31.7997 H   0  0  0  0  0  0  0  0  0  0  0  0
    1.6112   -3.4447   32.3139 H   0  0  0  0  0  0  0  0  0  0  0  0
  1  2  1  0
  2  3  2  0
  3  4  1  0
  4  5  2  0
  5  6  1  0
  5  7  1  0
  7  8  2  0
  8  9  1  0
  9 10  1  0
 10 11  2  0
 10 12  1  0
 12 13  2  0
 13 14  1  0
 14 15  2  0
 15 16  1  0
 16 17  1  0
 17 18  1  0
 18 19  2  0
 18 20  1  0
 20 21  1  0
 21 22  1  0
 22 23  1  0
 23 24  1  0
 24 25  1  0
 25 26  2  0
 26 27  1  0
 27 28  2  0
 28 29  1  0
 29 30  1  0
 28 31  1  0
 31 32  2  0
 24 33  1  0
  8  2  1  0
 16 12  1  0
 33 20  1  0
 32 25  1  0
  1 34  1  0
  1 35  1  0
  1 36  1  0
  3 37  1  0
  4 38  1  0
  7 39  1  0
  9 40  1  0
 15 41  1  0
 17 42  1  0
 17 43  1  0
 21 44  1  0
 21 45  1  0
 22 46  1  0
 22 47  1  0
 23 48  1  0
 23 49  1  0
 24 50  1  0
 26 51  1  0
 27 52  1  0
 29 53  1  0
 29 54  1  0
 30 55  1  0
 31 56  1  0
 32 57  1  0
 33 58  1  0
 33 59  1  0
M  END
>  <Energy>  (339) 
335.8299759464399

>  <compound_id>  (339) 
4036

>  <target_id>  (339) 
1

>  <reference_id>  (339) 
199

>  <inspiration_ids>  (339) 
[141, 199]

>  <energy_score>  (339) 
223.13117569888328

>  <distance_score>  (339) 
3.5757419520071396

>  <path>  (339) 
/opt/xchem-fragalysis-2/maxwin/BulkDock/SCRATCH/505735/C4036-P199/C4036-P199.minimised.mol

>  <scratch_subdir>  (339) 
/opt/xchem-fragalysis-2/maxwin/BulkDock/SCRATCH/505735/C4036-P199

>  <fragmenstein_runtime>  (339) 
11.913684606552124

>  <fragmenstein_outcome>  (339) 
too moved

>  <fragmenstein_mode>  (339) 
expansion

>  <fragmenstein_error>  (339) 


$$$$
C4037-P141
     RDKit          3D

 59 62  0  0  0  0  0  0  0  0999 V2000
    6.9263   -7.5066   26.4720 C   0  0  0  0  0  0  0  0  0  0  0  0
    6.7327   -6.0213   26.2239 C   0  0  0  0  0  0  0  0  0  0  0  0
    5.5234   -5.4528   26.9601 C   0  0  0  0  0  0  0  0  0  0  0  0
    4.8359   -6.1654   27.6404 O   0  0  0  0  0  0  0  0  0  0  0  0
    5.4472   -4.0316   26.7055 N   0  0  0  0  0  0  0  0  0  0  0  0
    4.4974   -3.0734   27.1000 C   0  0  0  0  0  0  0  0  0  0  0  0
    4.6811   -1.7527   26.6468 C   0  0  0  0  0  0  0  0  0  0  0  0
    3.7892   -0.7153   26.9968 C   0  0  0  0  0  0  0  0  0  0  0  0
    2.6890   -0.9787   27.8104 C   0  0  0  0  0  0  0  0  0  0  0  0
    1.8084    0.0520   28.3794 C   0  0  0  0  0  0  0  0  0  0  0  0
    0.4186   -0.1139   28.3785 C   0  0  0  0  0  0  0  0  0  0  0  0
   -0.3179    0.2827   29.4912 C   0  0  0  0  0  0  0  0  0  0  0  0
    0.3684    0.7636   30.6130 C   0  0  0  0  0  0  0  0  0  0  0  0
   -0.0762    0.4171   32.0506 C   0  0  0  0  0  0  0  0  0  0  0  0
    1.1082    0.0826   32.9632 C   0  0  0  0  0  0  0  0  0  0  0  0
    1.6888   -1.2344   32.4688 C   0  0  0  0  0  0  0  0  0  0  0  0
    0.5746   -2.0587   31.8062 C   0  0  0  0  0  0  0  0  0  0  0  0
   -0.5980   -2.2413   32.7239 N   0  0  0  0  0  0  0  0  0  0  0  0
   -1.1753   -3.5297   32.5282 C   0  0  0  0  0  0  0  0  0  0  0  0
   -2.0567   -3.8872   31.7916 O   0  0  0  0  0  0  0  0  0  0  0  0
   -0.4254   -4.5806   33.3590 C   0  0  0  0  0  0  0  0  0  0  0  0
   -0.3732   -5.8509   32.6542 N   0  0  0  0  0  0  0  0  0  0  0  0
    0.1298   -6.0743   31.4061 C   0  0  0  0  0  0  0  0  0  0  0  0
   -0.0696   -7.3279   31.0704 N   0  0  0  0  0  0  0  0  0  0  0  0
   -0.7075   -7.9399   32.1235 N   0  0  0  0  0  0  0  0  0  0  0  0
   -0.8748   -7.0441   33.0704 C   0  0  0  0  0  0  0  0  0  0  0  0
   -0.9884   -0.8662   32.1439 C   0  0  0  0  0  0  0  0  0  0  0  0
    1.6249    1.3405   30.3992 C   0  0  0  0  0  0  0  0  0  0  0  0
    2.3595    0.9651   29.2808 C   0  0  0  0  0  0  0  0  0  0  0  0
    2.5108   -2.3067   28.2503 C   0  0  0  0  0  0  0  0  0  0  0  0
    3.3904   -3.3347   27.9110 C   0  0  0  0  0  0  0  0  0  0  0  0
    3.0533   -4.5452   28.4482 O   0  0  0  0  0  0  0  0  0  0  0  0
    7.0882   -7.7112   27.5355 H   0  0  0  0  0  0  0  0  0  0  0  0
    7.7917   -7.8781   25.9150 H   0  0  0  0  0  0  0  0  0  0  0  0
    6.0450   -8.0695   26.1534 H   0  0  0  0  0  0  0  0  0  0  0  0
    7.6271   -5.4884   26.5629 H   0  0  0  0  0  0  0  0  0  0  0  0
    6.5895   -5.8551   25.1511 H   0  0  0  0  0  0  0  0  0  0  0  0
    6.2478   -3.7517   26.1420 H   0  0  0  0  0  0  0  0  0  0  0  0
    5.5203   -1.4999   26.0026 H   0  0  0  0  0  0  0  0  0  0  0  0
    3.9660    0.2906   26.6234 H   0  0  0  0  0  0  0  0  0  0  0  0
   -0.0694   -0.7330   27.6268 H   0  0  0  0  0  0  0  0  0  0  0  0
   -1.3662   -0.0013   29.5209 H   0  0  0  0  0  0  0  0  0  0  0  0
   -0.6190    1.2863   32.4366 H   0  0  0  0  0  0  0  0  0  0  0  0
    0.7396   -0.0485   33.9898 H   0  0  0  0  0  0  0  0  0  0  0  0
    1.8736    0.8609   33.0246 H   0  0  0  0  0  0  0  0  0  0  0  0
    2.1215   -1.7795   33.3163 H   0  0  0  0  0  0  0  0  0  0  0  0
    2.5002   -1.0728   31.7512 H   0  0  0  0  0  0  0  0  0  0  0  0
    0.3395   -1.8783   30.7498 H   0  0  0  0  0  0  0  0  0  0  0  0
    1.0357   -3.0536   31.7072 H   0  0  0  0  0  0  0  0  0  0  0  0
    0.6103   -4.2889   33.5582 H   0  0  0  0  0  0  0  0  0  0  0  0
   -0.9318   -4.7272   34.3157 H   0  0  0  0  0  0  0  0  0  0  0  0
    0.5949   -5.3186   30.7879 H   0  0  0  0  0  0  0  0  0  0  0  0
   -1.3483   -7.2125   34.0275 H   0  0  0  0  0  0  0  0  0  0  0  0
   -1.6102   -1.0520   31.2581 H   0  0  0  0  0  0  0  0  0  0  0  0
   -1.7580   -0.5764   32.8785 H   0  0  0  0  0  0  0  0  0  0  0  0
    2.1386    1.8953   31.1797 H   0  0  0  0  0  0  0  0  0  0  0  0
    3.4212    1.2010   29.2540 H   0  0  0  0  0  0  0  0  0  0  0  0
    1.6693   -2.5515   28.8944 H   0  0  0  0  0  0  0  0  0  0  0  0
    3.7404   -5.1981   28.2109 H   0  0  0  0  0  0  0  0  0  0  0  0
  1  2  1  0
  2  3  1  0
  3  4  2  0
  3  5  1  0
  5  6  1  0
  6  7  2  0
  7  8  1  0
  8  9  2  0
  9 10  1  0
 10 11  2  0
 11 12  1  0
 12 13  2  0
 13 14  1  0
 14 15  1  0
 15 16  1  0
 16 17  1  0
 17 18  1  0
 18 19  1  0
 19 20  2  0
 19 21  1  0
 21 22  1  0
 22 23  1  0
 23 24  2  0
 24 25  1  0
 25 26  2  0
 18 27  1  0
 13 28  1  0
 28 29  2  0
  9 30  1  0
 30 31  2  0
 31 32  1  0
 31  6  1  0
 29 10  1  0
 27 14  1  0
 26 22  1  0
  1 33  1  0
  1 34  1  0
  1 35  1  0
  2 36  1  0
  2 37  1  0
  5 38  1  0
  7 39  1  0
  8 40  1  0
 11 41  1  0
 12 42  1  0
 14 43  1  0
 15 44  1  0
 15 45  1  0
 16 46  1  0
 16 47  1  0
 17 48  1  0
 17 49  1  0
 21 50  1  0
 21 51  1  0
 23 52  1  0
 26 53  1  0
 27 54  1  0
 27 55  1  0
 28 56  1  0
 29 57  1  0
 30 58  1  0
 32 59  1  0
M  END
>  <Energy>  (340) 
141.93102634991229

>  <compound_id>  (340) 
4037

>  <target_id>  (340) 
1

>  <reference_id>  (340) 
141

>  <inspiration_ids>  (340) 
[141, 200]

>  <energy_score>  (340) 
-46.71972035807761

>  <distance_score>  (340) 
3.273932959333884

>  <path>  (340) 
/opt/xchem-fragalysis-2/maxwin/BulkDock/SCRATCH/505735/C4037-P141/C4037-P141.minimised.mol

>  <scratch_subdir>  (340) 
/opt/xchem-fragalysis-2/maxwin/BulkDock/SCRATCH/505735/C4037-P141

>  <fragmenstein_runtime>  (340) 
18.021524906158447

>  <fragmenstein_outcome>  (340) 
too moved

>  <fragmenstein_mode>  (340) 
expansion

>  <fragmenstein_error>  (340) 


$$$$
C4037-P200
     RDKit          3D

 59 62  0  0  0  0  0  0  0  0999 V2000
    9.8108   -2.4894   26.8365 C   0  0  0  0  0  0  0  0  0  0  0  0
    9.6970   -1.0216   26.4687 C   0  0  0  0  0  0  0  0  0  0  0  0
    8.5673   -0.3478   27.2406 C   0  0  0  0  0  0  0  0  0  0  0  0
    8.8244    0.3142   28.2067 O   0  0  0  0  0  0  0  0  0  0  0  0
    7.3059   -0.6625   26.6267 N   0  0  0  0  0  0  0  0  0  0  0  0
    5.9939   -0.3706   27.0190 C   0  0  0  0  0  0  0  0  0  0  0  0
    4.9772   -0.8884   26.2030 C   0  0  0  0  0  0  0  0  0  0  0  0
    3.6213   -0.7131   26.5170 C   0  0  0  0  0  0  0  0  0  0  0  0
    3.2359   -0.0251   27.6674 C   0  0  0  0  0  0  0  0  0  0  0  0
    1.8588   -0.0548   28.2001 C   0  0  0  0  0  0  0  0  0  0  0  0
    1.1240   -1.2517   28.1750 C   0  0  0  0  0  0  0  0  0  0  0  0
    0.1324   -1.4945   29.1196 C   0  0  0  0  0  0  0  0  0  0  0  0
   -0.1048   -0.5433   30.1141 C   0  0  0  0  0  0  0  0  0  0  0  0
   -0.6687   -0.9502   31.4515 C   0  0  0  0  0  0  0  0  0  0  0  0
   -2.0770   -1.4917   31.4185 C   0  0  0  0  0  0  0  0  0  0  0  0
   -2.3715   -1.9558   32.8340 C   0  0  0  0  0  0  0  0  0  0  0  0
   -1.1011   -2.5085   33.5155 C   0  0  0  0  0  0  0  0  0  0  0  0
   -0.2547   -3.3397   32.5647 N   0  0  0  0  0  0  0  0  0  0  0  0
    0.3733   -4.4181   33.2736 C   0  0  0  0  0  0  0  0  0  0  0  0
    1.4427   -4.4752   33.8228 O   0  0  0  0  0  0  0  0  0  0  0  0
   -0.5312   -5.6410   33.2758 C   0  0  0  0  0  0  0  0  0  0  0  0
   -0.4335   -6.4971   32.1133 N   0  0  0  0  0  0  0  0  0  0  0  0
    0.1498   -6.2559   30.9112 C   0  0  0  0  0  0  0  0  0  0  0  0
   -0.1074   -7.2540   30.0943 N   0  0  0  0  0  0  0  0  0  0  0  0
   -0.8932   -8.1579   30.7694 N   0  0  0  0  0  0  0  0  0  0  0  0
   -1.0619   -7.7020   31.9889 C   0  0  0  0  0  0  0  0  0  0  0  0
    0.2709   -1.9670   32.1825 C   0  0  0  0  0  0  0  0  0  0  0  0
    0.4195    0.7453   29.9681 C   0  0  0  0  0  0  0  0  0  0  0  0
    1.3813    0.9935   28.9967 C   0  0  0  0  0  0  0  0  0  0  0  0
    4.2680    0.5333   28.4503 C   0  0  0  0  0  0  0  0  0  0  0  0
    5.6205    0.3666   28.1398 C   0  0  0  0  0  0  0  0  0  0  0  0
    6.4735    0.9534   29.0299 O   0  0  0  0  0  0  0  0  0  0  0  0
   10.0043   -2.6077   27.9079 H   0  0  0  0  0  0  0  0  0  0  0  0
    8.8896   -3.0336   26.6065 H   0  0  0  0  0  0  0  0  0  0  0  0
   10.6321   -2.9579   26.2858 H   0  0  0  0  0  0  0  0  0  0  0  0
   10.6328   -0.5014   26.7033 H   0  0  0  0  0  0  0  0  0  0  0  0
    9.5331   -0.9031   25.3916 H   0  0  0  0  0  0  0  0  0  0  0  0
    7.4608   -1.3166   25.8727 H   0  0  0  0  0  0  0  0  0  0  0  0
    5.2109   -1.4411   25.2953 H   0  0  0  0  0  0  0  0  0  0  0  0
    2.8839   -1.1722   25.8614 H   0  0  0  0  0  0  0  0  0  0  0  0
    1.4247   -2.0723   27.5260 H   0  0  0  0  0  0  0  0  0  0  0  0
   -0.3068   -2.4881   29.1672 H   0  0  0  0  0  0  0  0  0  0  0  0
   -0.6921   -0.0505   32.0855 H   0  0  0  0  0  0  0  0  0  0  0  0
   -2.7998   -0.7359   31.0923 H   0  0  0  0  0  0  0  0  0  0  0  0
   -2.1656   -2.3377   30.7259 H   0  0  0  0  0  0  0  0  0  0  0  0
   -3.1615   -2.7082   32.7911 H   0  0  0  0  0  0  0  0  0  0  0  0
   -2.7628   -1.1286   33.4382 H   0  0  0  0  0  0  0  0  0  0  0  0
   -1.4610   -3.2042   34.2853 H   0  0  0  0  0  0  0  0  0  0  0  0
   -0.5785   -1.7778   34.1587 H   0  0  0  0  0  0  0  0  0  0  0  0
   -0.3039   -6.2481   34.1593 H   0  0  0  0  0  0  0  0  0  0  0  0
   -1.5709   -5.3363   33.3328 H   0  0  0  0  0  0  0  0  0  0  0  0
    0.7227   -5.3707   30.6684 H   0  0  0  0  0  0  0  0  0  0  0  0
   -1.6232   -8.1839   32.7796 H   0  0  0  0  0  0  0  0  0  0  0  0
    1.0725   -2.2521   31.4836 H   0  0  0  0  0  0  0  0  0  0  0  0
    0.8908   -1.4996   32.9692 H   0  0  0  0  0  0  0  0  0  0  0  0
    0.2033    1.5291   30.6897 H   0  0  0  0  0  0  0  0  0  0  0  0
    1.8723    1.9648   28.9841 H   0  0  0  0  0  0  0  0  0  0  0  0
    4.0345    1.0565   29.3758 H   0  0  0  0  0  0  0  0  0  0  0  0
    7.3999    0.7765   28.7698 H   0  0  0  0  0  0  0  0  0  0  0  0
  1  2  1  0
  2  3  1  0
  3  4  2  0
  3  5  1  0
  5  6  1  0
  6  7  2  0
  7  8  1  0
  8  9  2  0
  9 10  1  0
 10 11  2  0
 11 12  1  0
 12 13  2  0
 13 14  1  0
 14 15  1  0
 15 16  1  0
 16 17  1  0
 17 18  1  0
 18 19  1  0
 19 20  2  0
 19 21  1  0
 21 22  1  0
 22 23  1  0
 23 24  2  0
 24 25  1  0
 25 26  2  0
 18 27  1  0
 13 28  1  0
 28 29  2  0
  9 30  1  0
 30 31  2  0
 31 32  1  0
 31  6  1  0
 29 10  1  0
 27 14  1  0
 26 22  1  0
  1 33  1  0
  1 34  1  0
  1 35  1  0
  2 36  1  0
  2 37  1  0
  5 38  1  0
  7 39  1  0
  8 40  1  0
 11 41  1  0
 12 42  1  0
 14 43  1  0
 15 44  1  0
 15 45  1  0
 16 46  1  0
 16 47  1  0
 17 48  1  0
 17 49  1  0
 21 50  1  0
 21 51  1  0
 23 52  1  0
 26 53  1  0
 27 54  1  0
 27 55  1  0
 28 56  1  0
 29 57  1  0
 30 58  1  0
 32 59  1  0
M  END
>  <Energy>  (341) 
123.37498523975235

>  <compound_id>  (341) 
4037

>  <target_id>  (341) 
1

>  <reference_id>  (341) 
200

>  <inspiration_ids>  (341) 
[141, 200]

>  <energy_score>  (341) 
-65.27576146824157

>  <distance_score>  (341) 
4.770734032273205

>  <path>  (341) 
/opt/xchem-fragalysis-2/maxwin/BulkDock/SCRATCH/505735/C4037-P200/C4037-P200.minimised.mol

>  <scratch_subdir>  (341) 
/opt/xchem-fragalysis-2/maxwin/BulkDock/SCRATCH/505735/C4037-P200

>  <fragmenstein_runtime>  (341) 
20.469263553619385

>  <fragmenstein_outcome>  (341) 
too moved

>  <fragmenstein_mode>  (341) 
expansion

>  <fragmenstein_error>  (341) 


$$$$
C886-P141
     RDKit          3D

 47 50  0  0  0  0  0  0  0  0999 V2000
   -0.2964   -7.0566   30.0219 N   0  0  0  0  0  0  0  0  0  0  0  0
   -0.7497   -7.3409   31.2558 C   0  0  0  0  0  0  0  0  0  0  0  0
   -1.4524   -8.4049   31.5517 N   0  0  0  0  0  0  0  0  0  0  0  0
   -1.6070   -8.4368   32.9036 N   0  0  0  0  0  0  0  0  0  0  0  0
   -0.9727   -7.4116   33.4156 C   0  0  0  0  0  0  0  0  0  0  0  0
   -0.7164   -7.0417   34.7577 C   0  0  0  0  0  0  0  0  0  0  0  0
   -0.1818   -5.8368   35.0088 C   0  0  0  0  0  0  0  0  0  0  0  0
    0.0699   -4.8905   33.9304 C   0  0  0  0  0  0  0  0  0  0  0  0
   -0.1012   -5.2479   32.6351 C   0  0  0  0  0  0  0  0  0  0  0  0
   -0.0293   -4.2357   31.5033 C   0  0  0  0  0  0  0  0  0  0  0  0
   -0.3060   -4.5968   30.4214 O   0  0  0  0  0  0  0  0  0  0  0  0
    0.3093   -2.8618   32.0137 N   0  0  0  0  0  0  0  0  0  0  0  0
    1.8205   -2.5945   31.9324 C   0  0  0  0  0  0  0  0  0  0  0  0
    2.5437   -2.7310   30.5718 C   0  0  0  0  0  0  0  0  0  0  0  0
    2.0832   -1.6426   29.6190 C   0  0  0  0  0  0  0  0  0  0  0  0
    0.5773   -1.5591   29.7874 C   0  0  0  0  0  0  0  0  0  0  0  0
   -0.0986   -0.4503   29.0183 C   0  0  0  0  0  0  0  0  0  0  0  0
   -1.1326   -0.7906   28.1348 C   0  0  0  0  0  0  0  0  0  0  0  0
   -1.8111    0.1873   27.4108 C   0  0  0  0  0  0  0  0  0  0  0  0
   -1.5131    1.5371   27.5844 C   0  0  0  0  0  0  0  0  0  0  0  0
   -2.3078    2.5883   26.8627 C   0  0  0  0  0  0  0  0  0  0  0  0
   -1.5442    3.0967   25.7781 O   0  0  0  0  0  0  0  0  0  0  0  0
   -0.4639    1.8818   28.4455 C   0  0  0  0  0  0  0  0  0  0  0  0
    0.2374    0.8993   29.1579 C   0  0  0  0  0  0  0  0  0  0  0  0
    0.2959   -1.5177   31.3138 C   0  0  0  0  0  0  0  0  0  0  0  0
   -0.5512   -6.5668   32.3946 N   0  0  0  0  0  0  0  0  0  0  0  0
   -0.2190   -6.0576   29.7895 H   0  0  0  0  0  0  0  0  0  0  0  0
   -0.8515   -7.5154   29.3045 H   0  0  0  0  0  0  0  0  0  0  0  0
   -0.9500   -7.7459   35.5488 H   0  0  0  0  0  0  0  0  0  0  0  0
    0.0190   -5.5177   36.0278 H   0  0  0  0  0  0  0  0  0  0  0  0
    0.3278   -3.8811   34.2352 H   0  0  0  0  0  0  0  0  0  0  0  0
    2.2367   -3.4273   32.5214 H   0  0  0  0  0  0  0  0  0  0  0  0
    2.1563   -1.7282   32.5286 H   0  0  0  0  0  0  0  0  0  0  0  0
    3.6278   -2.6653   30.7169 H   0  0  0  0  0  0  0  0  0  0  0  0
    2.3404   -3.7167   30.1367 H   0  0  0  0  0  0  0  0  0  0  0  0
    2.5668   -0.6948   29.8844 H   0  0  0  0  0  0  0  0  0  0  0  0
    2.3665   -1.8736   28.5862 H   0  0  0  0  0  0  0  0  0  0  0  0
    0.1708   -2.4954   29.3884 H   0  0  0  0  0  0  0  0  0  0  0  0
   -1.4174   -1.8303   27.9744 H   0  0  0  0  0  0  0  0  0  0  0  0
   -2.5689   -0.1247   26.6974 H   0  0  0  0  0  0  0  0  0  0  0  0
   -2.5460    3.4128   27.5425 H   0  0  0  0  0  0  0  0  0  0  0  0
   -3.2489    2.1822   26.4762 H   0  0  0  0  0  0  0  0  0  0  0  0
   -2.1108    3.7706   25.3611 H   0  0  0  0  0  0  0  0  0  0  0  0
   -0.1989    2.9302   28.5720 H   0  0  0  0  0  0  0  0  0  0  0  0
    1.0373    1.2105   29.8237 H   0  0  0  0  0  0  0  0  0  0  0  0
   -0.7811   -1.2897   31.3822 H   0  0  0  0  0  0  0  0  0  0  0  0
    0.7201   -0.6593   31.8634 H   0  0  0  0  0  0  0  0  0  0  0  0
  1  2  1  0
  2  3  2  0
  3  4  1  0
  4  5  2  0
  5  6  1  0
  6  7  2  0
  7  8  1  0
  8  9  2  0
  9 10  1  0
 10 11  2  0
 10 12  1  0
 12 13  1  0
 13 14  1  0
 14 15  1  0
 15 16  1  0
 16 17  1  0
 17 18  2  0
 18 19  1  0
 19 20  2  0
 20 21  1  0
 21 22  1  0
 20 23  1  0
 23 24  2  0
 16 25  1  0
  9 26  1  0
 26  2  1  0
 26  5  1  0
 25 12  1  0
 24 17  1  0
  1 27  1  0
  1 28  1  0
  6 29  1  0
  7 30  1  0
  8 31  1  0
 13 32  1  0
 13 33  1  0
 14 34  1  0
 14 35  1  0
 15 36  1  0
 15 37  1  0
 16 38  1  0
 18 39  1  0
 19 40  1  0
 21 41  1  0
 21 42  1  0
 22 43  1  0
 23 44  1  0
 24 45  1  0
 25 46  1  0
 25 47  1  0
M  END
>  <Energy>  (342) 
128.4479151753693

>  <compound_id>  (342) 
886

>  <target_id>  (342) 
1

>  <reference_id>  (342) 
141

>  <inspiration_ids>  (342) 
[141, 202]

>  <energy_score>  (342) 
14.870430028880548

>  <distance_score>  (342) 
0.9510350546490834

>  <path>  (342) 
/opt/xchem-fragalysis-2/maxwin/BulkDock/SCRATCH/505735/C886-P141/C886-P141.minimised.mol

>  <scratch_subdir>  (342) 
/opt/xchem-fragalysis-2/maxwin/BulkDock/SCRATCH/505735/C886-P141

>  <fragmenstein_runtime>  (342) 
3.9830188751220703

>  <fragmenstein_outcome>  (342) 
too contorted

>  <fragmenstein_mode>  (342) 
expansion

>  <fragmenstein_error>  (342) 


$$$$
C886-P202
     RDKit          3D

 47 50  0  0  0  0  0  0  0  0999 V2000
   -0.2928   -6.9462   29.9806 N   0  0  0  0  0  0  0  0  0  0  0  0
   -0.7402   -7.2906   31.2013 C   0  0  0  0  0  0  0  0  0  0  0  0
   -1.4263   -8.3771   31.4521 N   0  0  0  0  0  0  0  0  0  0  0  0
   -1.5981   -8.4560   32.7991 N   0  0  0  0  0  0  0  0  0  0  0  0
   -0.9886   -7.4379   33.3550 C   0  0  0  0  0  0  0  0  0  0  0  0
   -0.7629   -7.1046   34.7127 C   0  0  0  0  0  0  0  0  0  0  0  0
   -0.2516   -5.9003   35.0115 C   0  0  0  0  0  0  0  0  0  0  0  0
    0.0109   -4.9187   33.9681 C   0  0  0  0  0  0  0  0  0  0  0  0
   -0.1316   -5.2392   32.6601 C   0  0  0  0  0  0  0  0  0  0  0  0
   -0.0358   -4.1939   31.5627 C   0  0  0  0  0  0  0  0  0  0  0  0
   -0.3449   -4.5107   30.4756 O   0  0  0  0  0  0  0  0  0  0  0  0
    0.3667   -2.8506   32.1075 N   0  0  0  0  0  0  0  0  0  0  0  0
    1.8856   -2.6417   32.0072 C   0  0  0  0  0  0  0  0  0  0  0  0
    2.5854   -2.7661   30.6340 C   0  0  0  0  0  0  0  0  0  0  0  0
    2.1515   -1.6366   29.7183 C   0  0  0  0  0  0  0  0  0  0  0  0
    0.6535   -1.5055   29.9148 C   0  0  0  0  0  0  0  0  0  0  0  0
    0.0148   -0.3746   29.1496 C   0  0  0  0  0  0  0  0  0  0  0  0
   -0.9059   -0.6983   28.1471 C   0  0  0  0  0  0  0  0  0  0  0  0
   -1.5418    0.2957   27.4104 C   0  0  0  0  0  0  0  0  0  0  0  0
   -1.3405    1.6421   27.6965 C   0  0  0  0  0  0  0  0  0  0  0  0
   -2.1440    2.6889   26.9774 C   0  0  0  0  0  0  0  0  0  0  0  0
   -1.5075    3.0272   25.7545 O   0  0  0  0  0  0  0  0  0  0  0  0
   -0.3884    1.9732   28.6664 C   0  0  0  0  0  0  0  0  0  0  0  0
    0.2859    0.9753   29.3869 C   0  0  0  0  0  0  0  0  0  0  0  0
    0.3962   -1.4846   31.4470 C   0  0  0  0  0  0  0  0  0  0  0  0
   -0.5639   -6.5544   32.3692 N   0  0  0  0  0  0  0  0  0  0  0  0
   -0.1990   -5.9388   29.7989 H   0  0  0  0  0  0  0  0  0  0  0  0
   -0.8724   -7.3417   29.2461 H   0  0  0  0  0  0  0  0  0  0  0  0
   -0.9996   -7.8369   35.4770 H   0  0  0  0  0  0  0  0  0  0  0  0
   -0.0735   -5.6108   36.0436 H   0  0  0  0  0  0  0  0  0  0  0  0
    0.2570   -3.9168   34.3062 H   0  0  0  0  0  0  0  0  0  0  0  0
    2.2751   -3.5077   32.5661 H   0  0  0  0  0  0  0  0  0  0  0  0
    2.2651   -1.8083   32.6238 H   0  0  0  0  0  0  0  0  0  0  0  0
    3.6730   -2.7433   30.7653 H   0  0  0  0  0  0  0  0  0  0  0  0
    2.3406   -3.7316   30.1757 H   0  0  0  0  0  0  0  0  0  0  0  0
    2.6689   -0.7111   29.9993 H   0  0  0  0  0  0  0  0  0  0  0  0
    2.4112   -1.8508   28.6756 H   0  0  0  0  0  0  0  0  0  0  0  0
    0.2081   -2.4231   29.5150 H   0  0  0  0  0  0  0  0  0  0  0  0
   -1.1351   -1.7352   27.9052 H   0  0  0  0  0  0  0  0  0  0  0  0
   -2.1925    0.0002   26.5944 H   0  0  0  0  0  0  0  0  0  0  0  0
   -2.2339    3.5927   27.5897 H   0  0  0  0  0  0  0  0  0  0  0  0
   -3.1553    2.3236   26.7664 H   0  0  0  0  0  0  0  0  0  0  0  0
   -2.0863    3.6919   25.3398 H   0  0  0  0  0  0  0  0  0  0  0  0
   -0.1792    3.0201   28.8790 H   0  0  0  0  0  0  0  0  0  0  0  0
    1.0106    1.2737   30.1394 H   0  0  0  0  0  0  0  0  0  0  0  0
   -0.6691   -1.2142   31.5371 H   0  0  0  0  0  0  0  0  0  0  0  0
    0.8666   -0.6606   32.0108 H   0  0  0  0  0  0  0  0  0  0  0  0
  1  2  1  0
  2  3  2  0
  3  4  1  0
  4  5  2  0
  5  6  1  0
  6  7  2  0
  7  8  1  0
  8  9  2  0
  9 10  1  0
 10 11  2  0
 10 12  1  0
 12 13  1  0
 13 14  1  0
 14 15  1  0
 15 16  1  0
 16 17  1  0
 17 18  2  0
 18 19  1  0
 19 20  2  0
 20 21  1  0
 21 22  1  0
 20 23  1  0
 23 24  2  0
 16 25  1  0
  9 26  1  0
 26  2  1  0
 26  5  1  0
 25 12  1  0
 24 17  1  0
  1 27  1  0
  1 28  1  0
  6 29  1  0
  7 30  1  0
  8 31  1  0
 13 32  1  0
 13 33  1  0
 14 34  1  0
 14 35  1  0
 15 36  1  0
 15 37  1  0
 16 38  1  0
 18 39  1  0
 19 40  1  0
 21 41  1  0
 21 42  1  0
 22 43  1  0
 23 44  1  0
 24 45  1  0
 25 46  1  0
 25 47  1  0
M  END
>  <Energy>  (343) 
129.08913033902235

>  <compound_id>  (343) 
886

>  <target_id>  (343) 
1

>  <reference_id>  (343) 
202

>  <inspiration_ids>  (343) 
[141, 202]

>  <energy_score>  (343) 
15.511645192533194

>  <distance_score>  (343) 
0.9943170816239046

>  <path>  (343) 
/opt/xchem-fragalysis-2/maxwin/BulkDock/SCRATCH/505735/C886-P202/C886-P202.minimised.mol

>  <scratch_subdir>  (343) 
/opt/xchem-fragalysis-2/maxwin/BulkDock/SCRATCH/505735/C886-P202

>  <fragmenstein_runtime>  (343) 
3.4619805812835693

>  <fragmenstein_outcome>  (343) 
too contorted

>  <fragmenstein_mode>  (343) 
expansion

>  <fragmenstein_error>  (343) 


$$$$
C4039-P142
     RDKit          3D

 60 63  0  0  0  0  0  0  0  0999 V2000
    0.3480   -6.5580   30.4685 C   0  0  0  0  0  0  0  0  0  0  0  0
   -0.1009   -5.2740   31.1517 C   0  0  0  0  0  0  0  0  0  0  0  0
   -0.2971   -4.2068   30.0726 C   0  0  0  0  0  0  0  0  0  0  0  0
   -1.3575   -5.5317   31.7525 O   0  0  0  0  0  0  0  0  0  0  0  0
   -1.2259   -6.2193   32.9055 C   0  0  0  0  0  0  0  0  0  0  0  0
   -1.6892   -7.3341   33.0785 O   0  0  0  0  0  0  0  0  0  0  0  0
   -0.5271   -5.4200   33.9249 C   0  0  0  0  0  0  0  0  0  0  0  0
    0.8674   -5.2097   33.3599 C   0  0  0  0  0  0  0  0  0  0  0  0
    1.6338   -6.4598   33.4598 N   0  0  0  0  0  0  0  0  0  0  0  0
    2.1152   -6.5102   34.8401 N   0  0  0  0  0  0  0  0  0  0  0  0
    2.0593   -5.1200   35.3090 C   0  0  0  0  0  0  0  0  0  0  0  0
    3.8111   -4.6623   35.9679 Br  0  0  0  0  0  0  0  0  0  0  0  0
    1.7124   -4.3225   34.1463 N   0  0  0  0  0  0  0  0  0  0  0  0
    1.1676   -2.9918   34.5032 C   0  0  0  0  0  0  0  0  0  0  0  0
    0.5703   -2.2267   33.2881 C   0  0  0  0  0  0  0  0  0  0  0  0
   -0.5014   -2.5796   32.8670 O   0  0  0  0  0  0  0  0  0  0  0  0
    1.4792   -1.2319   32.8022 N   0  0  0  0  0  0  0  0  0  0  0  0
    2.4799   -1.8691   31.8219 C   0  0  0  0  0  0  0  0  0  0  0  0
    3.3797   -1.2083   30.7567 C   0  0  0  0  0  0  0  0  0  0  0  0
    2.4792   -0.8281   29.5901 C   0  0  0  0  0  0  0  0  0  0  0  0
    1.0846   -0.6257   30.1820 C   0  0  0  0  0  0  0  0  0  0  0  0
    0.2522    0.2946   29.3177 C   0  0  0  0  0  0  0  0  0  0  0  0
    0.3567    1.6871   29.3715 C   0  0  0  0  0  0  0  0  0  0  0  0
   -0.4280    2.4925   28.5340 C   0  0  0  0  0  0  0  0  0  0  0  0
   -1.3242    1.9302   27.6148 C   0  0  0  0  0  0  0  0  0  0  0  0
   -2.2257    2.7727   26.7452 C   0  0  0  0  0  0  0  0  0  0  0  0
   -1.7337    4.1014   26.6151 O   0  0  0  0  0  0  0  0  0  0  0  0
   -1.4191    0.5365   27.5554 C   0  0  0  0  0  0  0  0  0  0  0  0
   -0.6395   -0.2689   28.3893 C   0  0  0  0  0  0  0  0  0  0  0  0
    1.3335   -0.2242   31.6705 C   0  0  0  0  0  0  0  0  0  0  0  0
    0.9074   -4.7799   32.0184 O   0  0  0  0  0  0  0  0  0  0  0  0
    0.6067   -7.3273   31.1969 H   0  0  0  0  0  0  0  0  0  0  0  0
    1.2199   -6.3734   29.8364 H   0  0  0  0  0  0  0  0  0  0  0  0
   -0.4635   -6.9854   29.8727 H   0  0  0  0  0  0  0  0  0  0  0  0
    0.6623   -3.8711   29.6652 H   0  0  0  0  0  0  0  0  0  0  0  0
   -0.9069   -4.5595   29.2395 H   0  0  0  0  0  0  0  0  0  0  0  0
   -0.8186   -3.3370   30.4818 H   0  0  0  0  0  0  0  0  0  0  0  0
   -0.5537   -5.9511   34.8829 H   0  0  0  0  0  0  0  0  0  0  0  0
   -1.0905   -4.4985   34.0701 H   0  0  0  0  0  0  0  0  0  0  0  0
    2.4367   -6.2510   32.8612 H   0  0  0  0  0  0  0  0  0  0  0  0
    1.4900   -7.0672   35.4321 H   0  0  0  0  0  0  0  0  0  0  0  0
    1.3524   -5.0242   36.1416 H   0  0  0  0  0  0  0  0  0  0  0  0
    1.9604   -2.3759   34.9438 H   0  0  0  0  0  0  0  0  0  0  0  0
    0.3726   -3.0651   35.2561 H   0  0  0  0  0  0  0  0  0  0  0  0
    1.9979   -2.7419   31.3625 H   0  0  0  0  0  0  0  0  0  0  0  0
    3.1946   -2.3314   32.5208 H   0  0  0  0  0  0  0  0  0  0  0  0
    3.9135   -0.3419   31.1643 H   0  0  0  0  0  0  0  0  0  0  0  0
    4.1430   -1.9154   30.4119 H   0  0  0  0  0  0  0  0  0  0  0  0
    2.8738    0.0683   29.0978 H   0  0  0  0  0  0  0  0  0  0  0  0
    2.4533   -1.6238   28.8357 H   0  0  0  0  0  0  0  0  0  0  0  0
    0.5509   -1.5804   30.1999 H   0  0  0  0  0  0  0  0  0  0  0  0
    1.0445    2.1733   30.0581 H   0  0  0  0  0  0  0  0  0  0  0  0
   -0.3435    3.5763   28.6090 H   0  0  0  0  0  0  0  0  0  0  0  0
   -3.2271    2.8036   27.1813 H   0  0  0  0  0  0  0  0  0  0  0  0
   -2.2905    2.3457   25.7392 H   0  0  0  0  0  0  0  0  0  0  0  0
   -2.5131    4.6671   26.4397 H   0  0  0  0  0  0  0  0  0  0  0  0
   -2.0991    0.0573   26.8519 H   0  0  0  0  0  0  0  0  0  0  0  0
   -0.7415   -1.3490   28.2938 H   0  0  0  0  0  0  0  0  0  0  0  0
    0.3968    0.2690   31.9766 H   0  0  0  0  0  0  0  0  0  0  0  0
    2.0722    0.5825   31.8049 H   0  0  0  0  0  0  0  0  0  0  0  0
  1  2  1  0
  2  3  1  0
  2  4  1  0
  4  5  1  0
  5  6  2  0
  5  7  1  0
  7  8  1  0
  8  9  1  0
  9 10  1  0
 10 11  1  0
 11 12  1  0
 11 13  1  0
 13 14  1  0
 14 15  1  0
 15 16  2  0
 15 17  1  0
 17 18  1  0
 18 19  1  0
 19 20  1  0
 20 21  1  0
 21 22  1  0
 22 23  2  0
 23 24  1  0
 24 25  2  0
 25 26  1  0
 26 27  1  0
 25 28  1  0
 28 29  2  0
 21 30  1  0
  8 31  1  0
 31  2  1  0
 13  8  1  0
 30 17  1  0
 29 22  1  0
  1 32  1  0
  1 33  1  0
  1 34  1  0
  3 35  1  0
  3 36  1  0
  3 37  1  0
  7 38  1  0
  7 39  1  0
  9 40  1  0
 10 41  1  0
 11 42  1  0
 14 43  1  0
 14 44  1  0
 18 45  1  0
 18 46  1  0
 19 47  1  0
 19 48  1  0
 20 49  1  0
 20 50  1  0
 21 51  1  0
 23 52  1  0
 24 53  1  0
 26 54  1  0
 26 55  1  0
 27 56  1  0
 28 57  1  0
 29 58  1  0
 30 59  1  0
 30 60  1  0
M  END
>  <Energy>  (344) 
51.467097796249966

>  <compound_id>  (344) 
4039

>  <target_id>  (344) 
1

>  <reference_id>  (344) 
142

>  <inspiration_ids>  (344) 
[142, 25]

>  <energy_score>  (344) 
27.206649472881793

>  <distance_score>  (344) 
2.73960979928216

>  <path>  (344) 
/opt/xchem-fragalysis-2/maxwin/BulkDock/SCRATCH/505735/C4039-P142/C4039-P142.minimised.mol

>  <scratch_subdir>  (344) 
/opt/xchem-fragalysis-2/maxwin/BulkDock/SCRATCH/505735/C4039-P142

>  <fragmenstein_runtime>  (344) 
12.335694074630737

>  <fragmenstein_outcome>  (344) 
too moved

>  <fragmenstein_mode>  (344) 
expansion

>  <fragmenstein_error>  (344) 


$$$$
C4039-P25
     RDKit          3D

 60 63  0  0  0  0  0  0  0  0999 V2000
   -0.8529   -7.6088   31.9733 C   0  0  0  0  0  0  0  0  0  0  0  0
   -0.2942   -6.2233   32.3196 C   0  0  0  0  0  0  0  0  0  0  0  0
   -0.2017   -5.3982   31.0341 C   0  0  0  0  0  0  0  0  0  0  0  0
   -1.2739   -5.6548   33.1661 O   0  0  0  0  0  0  0  0  0  0  0  0
   -1.1118   -6.1208   34.4239 C   0  0  0  0  0  0  0  0  0  0  0  0
   -1.7831   -6.9984   34.9490 O   0  0  0  0  0  0  0  0  0  0  0  0
    0.0607   -5.4909   35.0235 C   0  0  0  0  0  0  0  0  0  0  0  0
    1.2022   -6.1181   34.2346 C   0  0  0  0  0  0  0  0  0  0  0  0
    1.4743   -7.4697   34.7610 N   0  0  0  0  0  0  0  0  0  0  0  0
    2.4227   -7.2919   35.8452 N   0  0  0  0  0  0  0  0  0  0  0  0
    3.2296   -6.1495   35.4280 C   0  0  0  0  0  0  0  0  0  0  0  0
    4.8029   -6.8904   34.5642 Br  0  0  0  0  0  0  0  0  0  0  0  0
    2.3693   -5.3310   34.6085 N   0  0  0  0  0  0  0  0  0  0  0  0
    3.0104   -4.3733   33.6944 C   0  0  0  0  0  0  0  0  0  0  0  0
    2.0588   -3.4219   32.8949 C   0  0  0  0  0  0  0  0  0  0  0  0
    0.8680   -3.5610   32.9624 O   0  0  0  0  0  0  0  0  0  0  0  0
    2.8529   -2.5303   32.0835 N   0  0  0  0  0  0  0  0  0  0  0  0
    3.2181   -3.2095   30.7701 C   0  0  0  0  0  0  0  0  0  0  0  0
    3.8369   -2.5900   29.5121 C   0  0  0  0  0  0  0  0  0  0  0  0
    2.6781   -1.9822   28.7512 C   0  0  0  0  0  0  0  0  0  0  0  0
    1.6202   -1.5960   29.7940 C   0  0  0  0  0  0  0  0  0  0  0  0
    0.7752   -0.4856   29.2007 C   0  0  0  0  0  0  0  0  0  0  0  0
    1.0402    0.8756   29.3677 C   0  0  0  0  0  0  0  0  0  0  0  0
    0.3026    1.8379   28.6545 C   0  0  0  0  0  0  0  0  0  0  0  0
   -0.7099    1.4667   27.7577 C   0  0  0  0  0  0  0  0  0  0  0  0
   -1.5291    2.4638   26.9712 C   0  0  0  0  0  0  0  0  0  0  0  0
   -0.9879    3.7766   27.0325 O   0  0  0  0  0  0  0  0  0  0  0  0
   -0.9831    0.1049   27.6086 C   0  0  0  0  0  0  0  0  0  0  0  0
   -0.2593   -0.8527   28.3211 C   0  0  0  0  0  0  0  0  0  0  0  0
    2.4251   -1.3867   31.1269 C   0  0  0  0  0  0  0  0  0  0  0  0
    1.0392   -6.2518   32.8372 O   0  0  0  0  0  0  0  0  0  0  0  0
   -0.4051   -8.0350   31.0794 H   0  0  0  0  0  0  0  0  0  0  0  0
   -1.9280   -7.5731   31.7810 H   0  0  0  0  0  0  0  0  0  0  0  0
   -0.7214   -8.3007   32.8049 H   0  0  0  0  0  0  0  0  0  0  0  0
   -0.8075   -4.4879   31.0796 H   0  0  0  0  0  0  0  0  0  0  0  0
    0.8260   -5.1117   30.8157 H   0  0  0  0  0  0  0  0  0  0  0  0
   -0.5045   -5.9759   30.1600 H   0  0  0  0  0  0  0  0  0  0  0  0
    0.0912   -5.6943   36.1006 H   0  0  0  0  0  0  0  0  0  0  0  0
   -0.0411   -4.4062   34.9252 H   0  0  0  0  0  0  0  0  0  0  0  0
    0.6052   -7.9116   35.0828 H   0  0  0  0  0  0  0  0  0  0  0  0
    1.9527   -7.0183   36.7124 H   0  0  0  0  0  0  0  0  0  0  0  0
    3.6047   -5.5976   36.2957 H   0  0  0  0  0  0  0  0  0  0  0  0
    3.6889   -3.7312   34.2689 H   0  0  0  0  0  0  0  0  0  0  0  0
    3.5938   -4.9188   32.9493 H   0  0  0  0  0  0  0  0  0  0  0  0
    2.4212   -3.9092   30.4907 H   0  0  0  0  0  0  0  0  0  0  0  0
    4.0115   -3.8945   31.1060 H   0  0  0  0  0  0  0  0  0  0  0  0
    4.6114   -1.8544   29.7571 H   0  0  0  0  0  0  0  0  0  0  0  0
    4.3127   -3.3610   28.8949 H   0  0  0  0  0  0  0  0  0  0  0  0
    3.0352   -1.1341   28.1549 H   0  0  0  0  0  0  0  0  0  0  0  0
    2.2538   -2.7133   28.0546 H   0  0  0  0  0  0  0  0  0  0  0  0
    0.9303   -2.4345   29.9703 H   0  0  0  0  0  0  0  0  0  0  0  0
    1.8397    1.2174   30.0191 H   0  0  0  0  0  0  0  0  0  0  0  0
    0.5305    2.8942   28.7960 H   0  0  0  0  0  0  0  0  0  0  0  0
   -2.5510    2.4823   27.3555 H   0  0  0  0  0  0  0  0  0  0  0  0
   -1.5553    2.1689   25.9166 H   0  0  0  0  0  0  0  0  0  0  0  0
   -1.7104    4.3825   26.7764 H   0  0  0  0  0  0  0  0  0  0  0  0
   -1.7438   -0.2335   26.9088 H   0  0  0  0  0  0  0  0  0  0  0  0
   -0.4875   -1.9023   28.1373 H   0  0  0  0  0  0  0  0  0  0  0  0
    1.7339   -0.8303   31.7789 H   0  0  0  0  0  0  0  0  0  0  0  0
    3.2739   -0.6930   31.0192 H   0  0  0  0  0  0  0  0  0  0  0  0
  1  2  1  0
  2  3  1  0
  2  4  1  0
  4  5  1  0
  5  6  2  0
  5  7  1  0
  7  8  1  0
  8  9  1  0
  9 10  1  0
 10 11  1  0
 11 12  1  0
 11 13  1  0
 13 14  1  0
 14 15  1  0
 15 16  2  0
 15 17  1  0
 17 18  1  0
 18 19  1  0
 19 20  1  0
 20 21  1  0
 21 22  1  0
 22 23  2  0
 23 24  1  0
 24 25  2  0
 25 26  1  0
 26 27  1  0
 25 28  1  0
 28 29  2  0
 21 30  1  0
  8 31  1  0
 31  2  1  0
 13  8  1  0
 30 17  1  0
 29 22  1  0
  1 32  1  0
  1 33  1  0
  1 34  1  0
  3 35  1  0
  3 36  1  0
  3 37  1  0
  7 38  1  0
  7 39  1  0
  9 40  1  0
 10 41  1  0
 11 42  1  0
 14 43  1  0
 14 44  1  0
 18 45  1  0
 18 46  1  0
 19 47  1  0
 19 48  1  0
 20 49  1  0
 20 50  1  0
 21 51  1  0
 23 52  1  0
 24 53  1  0
 26 54  1  0
 26 55  1  0
 27 56  1  0
 28 57  1  0
 29 58  1  0
 30 59  1  0
 30 60  1  0
M  END
>  <Energy>  (345) 
78.660971495059556

>  <compound_id>  (345) 
4039

>  <target_id>  (345) 
1

>  <reference_id>  (345) 
25

>  <inspiration_ids>  (345) 
[142, 25]

>  <energy_score>  (345) 
54.40052317169312

>  <distance_score>  (345) 
2.9963419686693094

>  <path>  (345) 
/opt/xchem-fragalysis-2/maxwin/BulkDock/SCRATCH/505735/C4039-P25/C4039-P25.minimised.mol

>  <scratch_subdir>  (345) 
/opt/xchem-fragalysis-2/maxwin/BulkDock/SCRATCH/505735/C4039-P25

>  <fragmenstein_runtime>  (345) 
10.114296674728394

>  <fragmenstein_outcome>  (345) 
too moved

>  <fragmenstein_mode>  (345) 
expansion

>  <fragmenstein_error>  (345) 


$$$$
C4040-P142
     RDKit          3D

 59 62  0  0  0  0  0  0  0  0999 V2000
    1.2789   -3.3774   28.4773 O   0  0  0  0  0  0  0  0  0  0  0  0
    1.4881   -3.4563   29.6595 C   0  0  0  0  0  0  0  0  0  0  0  0
    1.7954   -4.8099   30.2911 C   0  0  0  0  0  0  0  0  0  0  0  0
    0.7474   -5.2811   31.2399 C   0  0  0  0  0  0  0  0  0  0  0  0
   -0.5975   -4.8705   31.3376 C   0  0  0  0  0  0  0  0  0  0  0  0
   -1.2553   -5.4810   32.3239 N   0  0  0  0  0  0  0  0  0  0  0  0
   -0.3193   -6.2364   32.9149 N   0  0  0  0  0  0  0  0  0  0  0  0
   -0.6013   -6.9134   34.1692 C   0  0  0  0  0  0  0  0  0  0  0  0
   -0.2871   -6.0520   35.3954 C   0  0  0  0  0  0  0  0  0  0  0  0
    1.2206   -5.8518   35.6106 C   0  0  0  0  0  0  0  0  0  0  0  0
    1.5289   -4.6740   36.4643 C   0  0  0  0  0  0  0  0  0  0  0  0
    2.0281   -4.7833   37.7391 N   0  0  0  0  0  0  0  0  0  0  0  0
    2.2373   -3.5211   38.2158 C   0  0  0  0  0  0  0  0  0  0  0  0
    1.9023   -2.6118   37.3325 N   0  0  0  0  0  0  0  0  0  0  0  0
    1.4541   -3.3134   36.2472 C   0  0  0  0  0  0  0  0  0  0  0  0
    0.7809   -2.3881   34.5304 I   0  0  0  0  0  0  0  0  0  0  0  0
    0.8797   -6.1906   32.2655 C   0  0  0  0  0  0  0  0  0  0  0  0
    1.4352   -2.4551   30.6849 N   0  0  0  0  0  0  0  0  0  0  0  0
    2.7956   -1.8044   30.8509 C   0  0  0  0  0  0  0  0  0  0  0  0
    3.5127   -1.3477   29.5682 C   0  0  0  0  0  0  0  0  0  0  0  0
    2.5845   -0.5265   28.6993 C   0  0  0  0  0  0  0  0  0  0  0  0
    1.4950    0.0349   29.5941 C   0  0  0  0  0  0  0  0  0  0  0  0
    0.3913    0.7093   28.8108 C   0  0  0  0  0  0  0  0  0  0  0  0
    0.2762    2.1046   28.8413 C   0  0  0  0  0  0  0  0  0  0  0  0
   -0.7029    2.7549   28.0904 C   0  0  0  0  0  0  0  0  0  0  0  0
   -1.5819    2.0307   27.2780 C   0  0  0  0  0  0  0  0  0  0  0  0
   -2.6234    2.7299   26.4467 C   0  0  0  0  0  0  0  0  0  0  0  0
   -2.1269    3.9875   25.9974 O   0  0  0  0  0  0  0  0  0  0  0  0
   -1.4961    0.6342   27.2823 C   0  0  0  0  0  0  0  0  0  0  0  0
   -0.5131   -0.0202   28.0298 C   0  0  0  0  0  0  0  0  0  0  0  0
    0.9906   -1.0077   30.6320 C   0  0  0  0  0  0  0  0  0  0  0  0
    1.9127   -5.5447   29.4860 H   0  0  0  0  0  0  0  0  0  0  0  0
    2.7610   -4.7375   30.7998 H   0  0  0  0  0  0  0  0  0  0  0  0
   -1.1160   -4.1377   30.7300 H   0  0  0  0  0  0  0  0  0  0  0  0
   -1.6600   -7.1918   34.1583 H   0  0  0  0  0  0  0  0  0  0  0  0
   -0.0166   -7.8348   34.1859 H   0  0  0  0  0  0  0  0  0  0  0  0
   -0.7026   -6.5392   36.2867 H   0  0  0  0  0  0  0  0  0  0  0  0
   -0.8097   -5.0937   35.3038 H   0  0  0  0  0  0  0  0  0  0  0  0
    1.6406   -6.7651   36.0511 H   0  0  0  0  0  0  0  0  0  0  0  0
    1.7527   -5.7056   34.6685 H   0  0  0  0  0  0  0  0  0  0  0  0
    2.2087   -5.6395   38.2452 H   0  0  0  0  0  0  0  0  0  0  0  0
    2.6295   -3.3296   39.2059 H   0  0  0  0  0  0  0  0  0  0  0  0
    1.7319   -6.7348   32.6293 H   0  0  0  0  0  0  0  0  0  0  0  0
    2.8838   -1.0819   31.6823 H   0  0  0  0  0  0  0  0  0  0  0  0
    3.4241   -2.6239   31.2332 H   0  0  0  0  0  0  0  0  0  0  0  0
    3.8918   -2.2048   28.9993 H   0  0  0  0  0  0  0  0  0  0  0  0
    4.3904   -0.7547   29.8519 H   0  0  0  0  0  0  0  0  0  0  0  0
    3.1366    0.2729   28.1906 H   0  0  0  0  0  0  0  0  0  0  0  0
    2.1646   -1.1485   27.9025 H   0  0  0  0  0  0  0  0  0  0  0  0
    1.9754    0.8196   30.1996 H   0  0  0  0  0  0  0  0  0  0  0  0
    0.9555    2.7097   29.4369 H   0  0  0  0  0  0  0  0  0  0  0  0
   -0.7671    3.8411   28.1256 H   0  0  0  0  0  0  0  0  0  0  0  0
   -3.5317    2.8778   27.0332 H   0  0  0  0  0  0  0  0  0  0  0  0
   -2.8694    2.1409   25.5592 H   0  0  0  0  0  0  0  0  0  0  0  0
   -2.8501    4.6348   26.1209 H   0  0  0  0  0  0  0  0  0  0  0  0
   -2.1692    0.0346   26.6708 H   0  0  0  0  0  0  0  0  0  0  0  0
   -0.4515   -1.1067   27.9653 H   0  0  0  0  0  0  0  0  0  0  0  0
   -0.0854   -1.1436   30.4451 H   0  0  0  0  0  0  0  0  0  0  0  0
    0.9671   -0.5753   31.6473 H   0  0  0  0  0  0  0  0  0  0  0  0
  1  2  2  0
  2  3  1  0
  3  4  1  0
  4  5  1  0
  5  6  2  0
  6  7  1  0
  7  8  1  0
  8  9  1  0
  9 10  1  0
 10 11  1  0
 11 12  1  0
 12 13  1  0
 13 14  2  0
 14 15  1  0
 15 16  1  0
  7 17  1  0
  2 18  1  0
 18 19  1  0
 19 20  1  0
 20 21  1  0
 21 22  1  0
 22 23  1  0
 23 24  2  0
 24 25  1  0
 25 26  2  0
 26 27  1  0
 27 28  1  0
 26 29  1  0
 29 30  2  0
 22 31  1  0
 17  4  2  0
 31 18  1  0
 15 11  2  0
 30 23  1  0
  3 32  1  0
  3 33  1  0
  5 34  1  0
  8 35  1  0
  8 36  1  0
  9 37  1  0
  9 38  1  0
 10 39  1  0
 10 40  1  0
 12 41  1  0
 13 42  1  0
 17 43  1  0
 19 44  1  0
 19 45  1  0
 20 46  1  0
 20 47  1  0
 21 48  1  0
 21 49  1  0
 22 50  1  0
 24 51  1  0
 25 52  1  0
 27 53  1  0
 27 54  1  0
 28 55  1  0
 29 56  1  0
 30 57  1  0
 31 58  1  0
 31 59  1  0
M  END
>  <Energy>  (346) 
130.4721872026482

>  <compound_id>  (346) 
4040

>  <target_id>  (346) 
1

>  <reference_id>  (346) 
142

>  <inspiration_ids>  (346) 
[142, 41]

>  <energy_score>  (346) 
25.61092089567188

>  <distance_score>  (346) 
2.289281112604307

>  <path>  (346) 
/opt/xchem-fragalysis-2/maxwin/BulkDock/SCRATCH/505735/C4040-P142/C4040-P142.minimised.mol

>  <scratch_subdir>  (346) 
/opt/xchem-fragalysis-2/maxwin/BulkDock/SCRATCH/505735/C4040-P142

>  <fragmenstein_runtime>  (346) 
9.012319087982178

>  <fragmenstein_outcome>  (346) 
too moved

>  <fragmenstein_mode>  (346) 
expansion

>  <fragmenstein_error>  (346) 


$$$$
C4040-P41
     RDKit          3D

 59 62  0  0  0  0  0  0  0  0999 V2000
    1.0974   -3.9920   28.4247 O   0  0  0  0  0  0  0  0  0  0  0  0
    1.0920   -4.1108   29.6229 C   0  0  0  0  0  0  0  0  0  0  0  0
    1.4956   -5.4540   30.2308 C   0  0  0  0  0  0  0  0  0  0  0  0
    0.4994   -6.1140   31.1264 C   0  0  0  0  0  0  0  0  0  0  0  0
   -0.1825   -7.3372   30.9413 C   0  0  0  0  0  0  0  0  0  0  0  0
   -0.8468   -7.7302   32.0307 N   0  0  0  0  0  0  0  0  0  0  0  0
   -0.5533   -6.7840   32.9419 N   0  0  0  0  0  0  0  0  0  0  0  0
   -0.8218   -7.0546   34.3442 C   0  0  0  0  0  0  0  0  0  0  0  0
   -0.3010   -6.0341   35.3635 C   0  0  0  0  0  0  0  0  0  0  0  0
    1.2327   -5.9821   35.4478 C   0  0  0  0  0  0  0  0  0  0  0  0
    1.7378   -4.8825   36.3208 C   0  0  0  0  0  0  0  0  0  0  0  0
    2.5302   -5.1387   37.4181 N   0  0  0  0  0  0  0  0  0  0  0  0
    2.8661   -3.9464   37.9881 C   0  0  0  0  0  0  0  0  0  0  0  0
    2.3450   -2.9404   37.3313 N   0  0  0  0  0  0  0  0  0  0  0  0
    1.6419   -3.5037   36.3008 C   0  0  0  0  0  0  0  0  0  0  0  0
    0.6213   -2.3220   34.9481 I   0  0  0  0  0  0  0  0  0  0  0  0
    0.1177   -5.7316   32.3938 C   0  0  0  0  0  0  0  0  0  0  0  0
    0.8067   -3.1563   30.6514 N   0  0  0  0  0  0  0  0  0  0  0  0
    2.0826   -2.4582   31.0850 C   0  0  0  0  0  0  0  0  0  0  0  0
    3.0032   -1.9394   29.9641 C   0  0  0  0  0  0  0  0  0  0  0  0
    2.2160   -1.0840   28.9942 C   0  0  0  0  0  0  0  0  0  0  0  0
    0.9943   -0.5807   29.7394 C   0  0  0  0  0  0  0  0  0  0  0  0
    0.0731    0.2243   28.8497 C   0  0  0  0  0  0  0  0  0  0  0  0
    0.0903    1.6236   28.9297 C   0  0  0  0  0  0  0  0  0  0  0  0
   -0.7398    2.3982   28.1169 C   0  0  0  0  0  0  0  0  0  0  0  0
   -1.6000    1.7991   27.1910 C   0  0  0  0  0  0  0  0  0  0  0  0
   -2.5387    2.6257   26.3505 C   0  0  0  0  0  0  0  0  0  0  0  0
   -1.9913    3.9181   26.1072 O   0  0  0  0  0  0  0  0  0  0  0  0
   -1.6128    0.4016   27.1064 C   0  0  0  0  0  0  0  0  0  0  0  0
   -0.7780   -0.3770   27.9160 C   0  0  0  0  0  0  0  0  0  0  0  0
    0.3085   -1.7196   30.5642 C   0  0  0  0  0  0  0  0  0  0  0  0
    1.7421   -6.1314   29.4048 H   0  0  0  0  0  0  0  0  0  0  0  0
    2.4369   -5.3196   30.7767 H   0  0  0  0  0  0  0  0  0  0  0  0
   -0.1812   -7.9931   30.0810 H   0  0  0  0  0  0  0  0  0  0  0  0
   -1.9080   -7.1431   34.4374 H   0  0  0  0  0  0  0  0  0  0  0  0
   -0.3851   -8.0345   34.5620 H   0  0  0  0  0  0  0  0  0  0  0  0
   -0.6939   -6.3024   36.3530 H   0  0  0  0  0  0  0  0  0  0  0  0
   -0.7282   -5.0559   35.1294 H   0  0  0  0  0  0  0  0  0  0  0  0
    1.5890   -6.9494   35.8265 H   0  0  0  0  0  0  0  0  0  0  0  0
    1.6982   -5.8651   34.4656 H   0  0  0  0  0  0  0  0  0  0  0  0
    2.8184   -6.0478   37.7536 H   0  0  0  0  0  0  0  0  0  0  0  0
    3.4861   -3.8749   38.8722 H   0  0  0  0  0  0  0  0  0  0  0  0
    0.3683   -4.8480   32.9582 H   0  0  0  0  0  0  0  0  0  0  0  0
    1.9821   -1.7510   31.9267 H   0  0  0  0  0  0  0  0  0  0  0  0
    2.6641   -3.2590   31.5668 H   0  0  0  0  0  0  0  0  0  0  0  0
    3.4882   -2.7637   29.4288 H   0  0  0  0  0  0  0  0  0  0  0  0
    3.8087   -1.3512   30.4201 H   0  0  0  0  0  0  0  0  0  0  0  0
    2.8323   -0.2578   28.6201 H   0  0  0  0  0  0  0  0  0  0  0  0
    1.9273   -1.6675   28.1137 H   0  0  0  0  0  0  0  0  0  0  0  0
    1.3689    0.1206   30.5024 H   0  0  0  0  0  0  0  0  0  0  0  0
    0.7496    2.1352   29.6268 H   0  0  0  0  0  0  0  0  0  0  0  0
   -0.7181    3.4828   28.2140 H   0  0  0  0  0  0  0  0  0  0  0  0
   -3.4986    2.7271   26.8633 H   0  0  0  0  0  0  0  0  0  0  0  0
   -2.7021    2.1526   25.3786 H   0  0  0  0  0  0  0  0  0  0  0  0
   -2.7435    4.5409   26.0671 H   0  0  0  0  0  0  0  0  0  0  0  0
   -2.2600   -0.1065   26.3934 H   0  0  0  0  0  0  0  0  0  0  0  0
   -0.7979   -1.4594   27.7870 H   0  0  0  0  0  0  0  0  0  0  0  0
   -0.6812   -1.8842   30.1147 H   0  0  0  0  0  0  0  0  0  0  0  0
    0.0307   -1.3645   31.5715 H   0  0  0  0  0  0  0  0  0  0  0  0
  1  2  2  0
  2  3  1  0
  3  4  1  0
  4  5  1  0
  5  6  2  0
  6  7  1  0
  7  8  1  0
  8  9  1  0
  9 10  1  0
 10 11  1  0
 11 12  1  0
 12 13  1  0
 13 14  2  0
 14 15  1  0
 15 16  1  0
  7 17  1  0
  2 18  1  0
 18 19  1  0
 19 20  1  0
 20 21  1  0
 21 22  1  0
 22 23  1  0
 23 24  2  0
 24 25  1  0
 25 26  2  0
 26 27  1  0
 27 28  1  0
 26 29  1  0
 29 30  2  0
 22 31  1  0
 17  4  2  0
 31 18  1  0
 15 11  2  0
 30 23  1  0
  3 32  1  0
  3 33  1  0
  5 34  1  0
  8 35  1  0
  8 36  1  0
  9 37  1  0
  9 38  1  0
 10 39  1  0
 10 40  1  0
 12 41  1  0
 13 42  1  0
 17 43  1  0
 19 44  1  0
 19 45  1  0
 20 46  1  0
 20 47  1  0
 21 48  1  0
 21 49  1  0
 22 50  1  0
 24 51  1  0
 25 52  1  0
 27 53  1  0
 27 54  1  0
 28 55  1  0
 29 56  1  0
 30 57  1  0
 31 58  1  0
 31 59  1  0
M  END
>  <Energy>  (347) 
136.47178557447418

>  <compound_id>  (347) 
4040

>  <target_id>  (347) 
1

>  <reference_id>  (347) 
41

>  <inspiration_ids>  (347) 
[142, 41]

>  <energy_score>  (347) 
31.61051926749957

>  <distance_score>  (347) 
1.9562103119029592

>  <path>  (347) 
/opt/xchem-fragalysis-2/maxwin/BulkDock/SCRATCH/505735/C4040-P41/C4040-P41.minimised.mol

>  <scratch_subdir>  (347) 
/opt/xchem-fragalysis-2/maxwin/BulkDock/SCRATCH/505735/C4040-P41

>  <fragmenstein_runtime>  (347) 
8.554243803024292

>  <fragmenstein_outcome>  (347) 
too moved

>  <fragmenstein_mode>  (347) 
expansion

>  <fragmenstein_error>  (347) 


$$$$
C4041-P142
     RDKit          3D

 78 82  0  0  0  0  0  0  0  0999 V2000
   -1.8468    3.6886   26.6937 O   0  0  0  0  0  0  0  0  0  0  0  0
   -2.3261    2.3511   26.6342 C   0  0  0  0  0  0  0  0  0  0  0  0
   -1.4020    1.3987   27.3528 C   0  0  0  0  0  0  0  0  0  0  0  0
   -0.2052    1.7965   27.9423 C   0  0  0  0  0  0  0  0  0  0  0  0
    0.6135    0.8798   28.6197 C   0  0  0  0  0  0  0  0  0  0  0  0
    0.2615   -0.4701   28.7402 C   0  0  0  0  0  0  0  0  0  0  0  0
    1.1792   -1.4135   29.5137 C   0  0  0  0  0  0  0  0  0  0  0  0
    1.5140   -2.7037   28.7990 C   0  0  0  0  0  0  0  0  0  0  0  0
    0.4487   -3.7409   29.0903 C   0  0  0  0  0  0  0  0  0  0  0  0
   -0.3074   -3.4329   30.3872 C   0  0  0  0  0  0  0  0  0  0  0  0
    0.7685   -3.1732   31.4918 N   0  0  0  0  0  0  0  0  0  0  0  0
    0.3379   -3.7587   32.8371 C   0  0  0  0  0  0  0  0  0  0  0  0
    0.9047   -5.1991   32.9926 C   0  0  0  0  0  0  0  0  0  0  0  0
    0.0059   -6.2246   32.4835 N   0  0  0  0  0  0  0  0  0  0  0  0
   -0.9451   -6.9165   33.1661 C   0  0  0  0  0  0  0  0  0  0  0  0
   -1.5158   -7.7872   32.3618 N   0  0  0  0  0  0  0  0  0  0  0  0
   -0.9113   -7.6911   31.1337 N   0  0  0  0  0  0  0  0  0  0  0  0
    0.0232   -6.7766   31.2368 C   0  0  0  0  0  0  0  0  0  0  0  0
   -0.2955   -3.2594   33.7450 N   0  0  0  0  0  0  0  0  0  0  0  0
   -0.5188   -3.6458   35.1117 C   0  0  0  0  0  0  0  0  0  0  0  0
    0.5559   -2.9979   36.0006 C   0  0  0  0  0  0  0  0  0  0  0  0
    0.4340   -1.4794   36.2913 C   0  0  0  0  0  0  0  0  0  0  0  0
    0.7004   -0.4742   35.1371 C   0  0  0  0  0  0  0  0  0  0  0  0
    1.8576   -0.9136   34.4074 O   0  0  0  0  0  0  0  0  0  0  0  0
    1.0214    0.9369   35.6688 C   0  0  0  0  0  0  0  0  0  0  0  0
    1.2341    1.9325   34.5041 C   0  0  0  0  0  0  0  0  0  0  0  0
    0.1587    1.9720   33.4910 N   0  0  0  0  0  0  0  0  0  0  0  0
    0.6559    1.7241   32.1206 C   0  0  0  0  0  0  0  0  0  0  0  0
    1.2902    2.9488   31.4926 C   0  0  0  0  0  0  0  0  0  0  0  0
    2.6410    3.3779   31.7535 C   0  0  0  0  0  0  0  0  0  0  0  0
    3.0038    4.4990   31.0421 C   0  0  0  0  0  0  0  0  0  0  0  0
    1.7474    5.0418   30.0268 S   0  0  0  0  0  0  0  0  0  0  0  0
    0.7147    3.7779   30.5416 C   0  0  0  0  0  0  0  0  0  0  0  0
   -0.9232    1.0476   33.8500 C   0  0  0  0  0  0  0  0  0  0  0  0
   -0.4929   -0.3775   34.1796 C   0  0  0  0  0  0  0  0  0  0  0  0
    0.6214   -1.7315   30.9146 C   0  0  0  0  0  0  0  0  0  0  0  0
   -0.9260   -0.8695   28.1231 C   0  0  0  0  0  0  0  0  0  0  0  0
   -1.7224    0.0447   27.4234 C   0  0  0  0  0  0  0  0  0  0  0  0
   -2.6064    4.2780   26.5228 H   0  0  0  0  0  0  0  0  0  0  0  0
   -2.4083    2.0687   25.5803 H   0  0  0  0  0  0  0  0  0  0  0  0
   -3.3176    2.3176   27.0947 H   0  0  0  0  0  0  0  0  0  0  0  0
    0.1141    2.8342   27.8637 H   0  0  0  0  0  0  0  0  0  0  0  0
    1.5461    1.2470   29.0440 H   0  0  0  0  0  0  0  0  0  0  0  0
    2.1352   -0.8852   29.6425 H   0  0  0  0  0  0  0  0  0  0  0  0
    1.6707   -2.5651   27.7289 H   0  0  0  0  0  0  0  0  0  0  0  0
    2.4683   -3.0808   29.1927 H   0  0  0  0  0  0  0  0  0  0  0  0
   -0.2694   -3.8096   28.2708 H   0  0  0  0  0  0  0  0  0  0  0  0
    0.9369   -4.7178   29.1542 H   0  0  0  0  0  0  0  0  0  0  0  0
   -0.8177   -4.3604   30.6626 H   0  0  0  0  0  0  0  0  0  0  0  0
   -1.1683   -2.7508   30.2954 H   0  0  0  0  0  0  0  0  0  0  0  0
    1.8408   -5.2788   32.4273 H   0  0  0  0  0  0  0  0  0  0  0  0
    1.1382   -5.4381   34.0333 H   0  0  0  0  0  0  0  0  0  0  0  0
   -1.1868   -6.7636   34.2082 H   0  0  0  0  0  0  0  0  0  0  0  0
    0.7088   -6.4820   30.4597 H   0  0  0  0  0  0  0  0  0  0  0  0
   -1.5079   -3.3057   35.4342 H   0  0  0  0  0  0  0  0  0  0  0  0
   -0.5066   -4.7301   35.2490 H   0  0  0  0  0  0  0  0  0  0  0  0
    1.5531   -3.2155   35.5992 H   0  0  0  0  0  0  0  0  0  0  0  0
    0.5076   -3.5038   36.9743 H   0  0  0  0  0  0  0  0  0  0  0  0
    1.1775   -1.2772   37.0754 H   0  0  0  0  0  0  0  0  0  0  0  0
   -0.5414   -1.2721   36.7496 H   0  0  0  0  0  0  0  0  0  0  0  0
    2.5706   -1.0653   35.0501 H   0  0  0  0  0  0  0  0  0  0  0  0
    1.9412    0.9162   36.2671 H   0  0  0  0  0  0  0  0  0  0  0  0
    0.2198    1.2930   36.3280 H   0  0  0  0  0  0  0  0  0  0  0  0
    1.3327    2.9395   34.9269 H   0  0  0  0  0  0  0  0  0  0  0  0
    2.2055    1.6999   34.0531 H   0  0  0  0  0  0  0  0  0  0  0  0
    1.3769    0.9008   32.1063 H   0  0  0  0  0  0  0  0  0  0  0  0
   -0.1738    1.4216   31.4705 H   0  0  0  0  0  0  0  0  0  0  0  0
    3.3169    2.8839   32.4393 H   0  0  0  0  0  0  0  0  0  0  0  0
    3.9488    5.0231   31.0666 H   0  0  0  0  0  0  0  0  0  0  0  0
   -0.2689    3.7163   30.1063 H   0  0  0  0  0  0  0  0  0  0  0  0
   -1.4661    1.4698   34.7063 H   0  0  0  0  0  0  0  0  0  0  0  0
   -1.6699    0.9855   33.0520 H   0  0  0  0  0  0  0  0  0  0  0  0
   -0.2586   -0.8712   33.2419 H   0  0  0  0  0  0  0  0  0  0  0  0
   -1.3726   -0.8802   34.5985 H   0  0  0  0  0  0  0  0  0  0  0  0
    1.2909   -1.1819   31.5892 H   0  0  0  0  0  0  0  0  0  0  0  0
   -0.3489   -1.2581   31.1422 H   0  0  0  0  0  0  0  0  0  0  0  0
   -1.2633   -1.8998   28.1137 H   0  0  0  0  0  0  0  0  0  0  0  0
   -2.5855   -0.3379   26.8909 H   0  0  0  0  0  0  0  0  0  0  0  0
  1  2  1  0
  2  3  1  0
  3  4  2  0
  4  5  1  0
  5  6  2  0
  6  7  1  0
  7  8  1  0
  8  9  1  0
  9 10  1  0
 10 11  1  0
 11 12  1  0
 12 13  1  0
 13 14  1  0
 14 15  1  0
 15 16  2  0
 16 17  1  0
 17 18  2  0
 12 19  2  3
 19 20  1  0
 20 21  1  0
 21 22  1  0
 22 23  1  0
 23 24  1  0
 23 25  1  0
 25 26  1  0
 26 27  1  0
 27 28  1  0
 28 29  1  0
 29 30  1  0
 30 31  2  0
 31 32  1  0
 32 33  1  0
 27 34  1  0
 34 35  1  0
 11 36  1  0
  6 37  1  0
 37 38  2  0
 38  3  1  0
 36  7  1  0
 18 14  1  0
 35 23  1  0
 33 29  2  0
  1 39  1  0
  2 40  1  0
  2 41  1  0
  4 42  1  0
  5 43  1  0
  7 44  1  0
  8 45  1  0
  8 46  1  0
  9 47  1  0
  9 48  1  0
 10 49  1  0
 10 50  1  0
 13 51  1  0
 13 52  1  0
 15 53  1  0
 18 54  1  0
 20 55  1  0
 20 56  1  0
 21 57  1  0
 21 58  1  0
 22 59  1  0
 22 60  1  0
 24 61  1  0
 25 62  1  0
 25 63  1  0
 26 64  1  0
 26 65  1  0
 28 66  1  0
 28 67  1  0
 30 68  1  0
 31 69  1  0
 33 70  1  0
 34 71  1  0
 34 72  1  0
 35 73  1  0
 35 74  1  0
 36 75  1  0
 36 76  1  0
 37 77  1  0
 38 78  1  0
M  END
>  <Energy>  (348) 
155.07156175547198

>  <compound_id>  (348) 
4041

>  <target_id>  (348) 
1

>  <reference_id>  (348) 
142

>  <inspiration_ids>  (348) 
[142, 44]

>  <energy_score>  (348) 
17.524606375936003

>  <distance_score>  (348) 
1.875176408842957

>  <path>  (348) 
/opt/xchem-fragalysis-2/maxwin/BulkDock/SCRATCH/505735/C4041-P142/C4041-P142.minimised.mol

>  <scratch_subdir>  (348) 
/opt/xchem-fragalysis-2/maxwin/BulkDock/SCRATCH/505735/C4041-P142

>  <fragmenstein_runtime>  (348) 
78.07340002059937

>  <fragmenstein_outcome>  (348) 
too moved

>  <fragmenstein_mode>  (348) 
expansion

>  <fragmenstein_error>  (348) 


$$$$
C4041-P44
     RDKit          3D

 78 82  0  0  0  0  0  0  0  0999 V2000
   -1.4137    3.2360   25.9393 O   0  0  0  0  0  0  0  0  0  0  0  0
   -1.9874    2.8503   27.1791 C   0  0  0  0  0  0  0  0  0  0  0  0
   -1.2199    1.6858   27.7402 C   0  0  0  0  0  0  0  0  0  0  0  0
   -0.0514    1.8713   28.4842 C   0  0  0  0  0  0  0  0  0  0  0  0
    0.6571    0.7774   28.9985 C   0  0  0  0  0  0  0  0  0  0  0  0
    0.2121   -0.5387   28.7938 C   0  0  0  0  0  0  0  0  0  0  0  0
    1.0289   -1.7055   29.3527 C   0  0  0  0  0  0  0  0  0  0  0  0
    0.5102   -3.0995   29.0200 C   0  0  0  0  0  0  0  0  0  0  0  0
   -0.6258   -3.4450   29.9617 C   0  0  0  0  0  0  0  0  0  0  0  0
   -0.3956   -2.8157   31.3327 C   0  0  0  0  0  0  0  0  0  0  0  0
    1.1460   -2.9297   31.7065 N   0  0  0  0  0  0  0  0  0  0  0  0
    1.3052   -3.1921   33.1141 C   0  0  0  0  0  0  0  0  0  0  0  0
    1.4443   -4.6816   33.5034 C   0  0  0  0  0  0  0  0  0  0  0  0
    0.5555   -5.5951   32.8184 N   0  0  0  0  0  0  0  0  0  0  0  0
   -0.6200   -6.0987   33.2827 C   0  0  0  0  0  0  0  0  0  0  0  0
   -1.1176   -6.9294   32.3934 N   0  0  0  0  0  0  0  0  0  0  0  0
   -0.2316   -7.0022   31.3437 N   0  0  0  0  0  0  0  0  0  0  0  0
    0.7798   -6.2129   31.6264 C   0  0  0  0  0  0  0  0  0  0  0  0
    1.4358   -2.4054   34.0890 N   0  0  0  0  0  0  0  0  0  0  0  0
    1.5369   -0.9592   33.9965 C   0  0  0  0  0  0  0  0  0  0  0  0
    0.1850   -0.3087   34.2630 C   0  0  0  0  0  0  0  0  0  0  0  0
   -0.0088    1.1321   33.7507 C   0  0  0  0  0  0  0  0  0  0  0  0
    1.1005    2.1823   34.0218 C   0  0  0  0  0  0  0  0  0  0  0  0
    1.7642    1.8549   35.2451 O   0  0  0  0  0  0  0  0  0  0  0  0
    0.4694    3.5868   34.1807 C   0  0  0  0  0  0  0  0  0  0  0  0
    1.4588    4.6895   33.7917 C   0  0  0  0  0  0  0  0  0  0  0  0
    1.8702    4.6248   32.3795 N   0  0  0  0  0  0  0  0  0  0  0  0
    1.1044    5.5783   31.5552 C   0  0  0  0  0  0  0  0  0  0  0  0
    1.6265    5.6539   30.1442 C   0  0  0  0  0  0  0  0  0  0  0  0
    3.0067    5.8264   29.7817 C   0  0  0  0  0  0  0  0  0  0  0  0
    3.1989    5.8811   28.4197 C   0  0  0  0  0  0  0  0  0  0  0  0
    1.7286    5.7482   27.5610 S   0  0  0  0  0  0  0  0  0  0  0  0
    0.8313    5.6212   29.0112 C   0  0  0  0  0  0  0  0  0  0  0  0
    1.8258    3.2590   31.8387 C   0  0  0  0  0  0  0  0  0  0  0  0
    2.1629    2.2133   32.9021 C   0  0  0  0  0  0  0  0  0  0  0  0
    1.1949   -1.5927   30.9009 C   0  0  0  0  0  0  0  0  0  0  0  0
   -0.9450   -0.7112   28.0221 C   0  0  0  0  0  0  0  0  0  0  0  0
   -1.6393    0.3806   27.4927 C   0  0  0  0  0  0  0  0  0  0  0  0
   -1.9363    3.9998   25.6352 H   0  0  0  0  0  0  0  0  0  0  0  0
   -3.0375    2.5846   27.0164 H   0  0  0  0  0  0  0  0  0  0  0  0
   -1.9565    3.6992   27.8705 H   0  0  0  0  0  0  0  0  0  0  0  0
    0.3304    2.8748   28.6471 H   0  0  0  0  0  0  0  0  0  0  0  0
    1.5798    0.9709   29.5412 H   0  0  0  0  0  0  0  0  0  0  0  0
    2.0204   -1.6204   28.8848 H   0  0  0  0  0  0  0  0  0  0  0  0
    0.2127   -3.2201   27.9784 H   0  0  0  0  0  0  0  0  0  0  0  0
    1.3244   -3.8211   29.1746 H   0  0  0  0  0  0  0  0  0  0  0  0
   -1.5912   -3.1061   29.5745 H   0  0  0  0  0  0  0  0  0  0  0  0
   -0.6876   -4.5319   30.0412 H   0  0  0  0  0  0  0  0  0  0  0  0
   -0.9398   -3.4445   32.0503 H   0  0  0  0  0  0  0  0  0  0  0  0
   -0.8945   -1.8429   31.4727 H   0  0  0  0  0  0  0  0  0  0  0  0
    2.4720   -4.9941   33.2837 H   0  0  0  0  0  0  0  0  0  0  0  0
    1.2803   -4.8052   34.5804 H   0  0  0  0  0  0  0  0  0  0  0  0
   -1.0636   -5.8375   34.2346 H   0  0  0  0  0  0  0  0  0  0  0  0
    1.6511   -6.0416   31.0111 H   0  0  0  0  0  0  0  0  0  0  0  0
    2.2511   -0.6317   34.7604 H   0  0  0  0  0  0  0  0  0  0  0  0
    1.9796   -0.6547   33.0562 H   0  0  0  0  0  0  0  0  0  0  0  0
    0.0015   -0.3274   35.3454 H   0  0  0  0  0  0  0  0  0  0  0  0
   -0.6147   -0.9199   33.8255 H   0  0  0  0  0  0  0  0  0  0  0  0
   -0.9403    1.4809   34.2189 H   0  0  0  0  0  0  0  0  0  0  0  0
   -0.2257    1.1056   32.6752 H   0  0  0  0  0  0  0  0  0  0  0  0
    1.1017    1.8113   35.9560 H   0  0  0  0  0  0  0  0  0  0  0  0
    0.1490    3.7455   35.2176 H   0  0  0  0  0  0  0  0  0  0  0  0
   -0.4241    3.6861   33.5514 H   0  0  0  0  0  0  0  0  0  0  0  0
    1.0356    5.6702   34.0423 H   0  0  0  0  0  0  0  0  0  0  0  0
    2.3591    4.5968   34.4126 H   0  0  0  0  0  0  0  0  0  0  0  0
    0.0429    5.3159   31.5623 H   0  0  0  0  0  0  0  0  0  0  0  0
    1.1920    6.5868   31.9803 H   0  0  0  0  0  0  0  0  0  0  0  0
    3.8152    5.8961   30.5002 H   0  0  0  0  0  0  0  0  0  0  0  0
    4.1321    5.9978   27.8868 H   0  0  0  0  0  0  0  0  0  0  0  0
   -0.2456    5.5282   28.9640 H   0  0  0  0  0  0  0  0  0  0  0  0
    2.5512    3.1650   31.0228 H   0  0  0  0  0  0  0  0  0  0  0  0
    0.8363    3.0291   31.4220 H   0  0  0  0  0  0  0  0  0  0  0  0
    3.1573    2.4190   33.3212 H   0  0  0  0  0  0  0  0  0  0  0  0
    2.2525    1.2455   32.4054 H   0  0  0  0  0  0  0  0  0  0  0  0
    2.2413   -1.2760   31.0287 H   0  0  0  0  0  0  0  0  0  0  0  0
    0.6413   -0.7596   31.3589 H   0  0  0  0  0  0  0  0  0  0  0  0
   -1.3299   -1.6950   27.7643 H   0  0  0  0  0  0  0  0  0  0  0  0
   -2.4988    0.1922   26.8544 H   0  0  0  0  0  0  0  0  0  0  0  0
  1  2  1  0
  2  3  1  0
  3  4  2  0
  4  5  1  0
  5  6  2  0
  6  7  1  0
  7  8  1  0
  8  9  1  0
  9 10  1  0
 10 11  1  0
 11 12  1  0
 12 13  1  0
 13 14  1  0
 14 15  1  0
 15 16  2  0
 16 17  1  0
 17 18  2  0
 12 19  2  3
 19 20  1  0
 20 21  1  0
 21 22  1  0
 22 23  1  0
 23 24  1  0
 23 25  1  0
 25 26  1  0
 26 27  1  0
 27 28  1  0
 28 29  1  0
 29 30  1  0
 30 31  2  0
 31 32  1  0
 32 33  1  0
 27 34  1  0
 34 35  1  0
 11 36  1  0
  6 37  1  0
 37 38  2  0
 38  3  1  0
 36  7  1  0
 18 14  1  0
 35 23  1  0
 33 29  2  0
  1 39  1  0
  2 40  1  0
  2 41  1  0
  4 42  1  0
  5 43  1  0
  7 44  1  0
  8 45  1  0
  8 46  1  0
  9 47  1  0
  9 48  1  0
 10 49  1  0
 10 50  1  0
 13 51  1  0
 13 52  1  0
 15 53  1  0
 18 54  1  0
 20 55  1  0
 20 56  1  0
 21 57  1  0
 21 58  1  0
 22 59  1  0
 22 60  1  0
 24 61  1  0
 25 62  1  0
 25 63  1  0
 26 64  1  0
 26 65  1  0
 28 66  1  0
 28 67  1  0
 30 68  1  0
 31 69  1  0
 33 70  1  0
 34 71  1  0
 34 72  1  0
 35 73  1  0
 35 74  1  0
 36 75  1  0
 36 76  1  0
 37 77  1  0
 38 78  1  0
M  END
>  <Energy>  (349) 
129.19208944848666

>  <compound_id>  (349) 
4041

>  <target_id>  (349) 
1

>  <reference_id>  (349) 
44

>  <inspiration_ids>  (349) 
[142, 44]

>  <energy_score>  (349) 
-5.59625718597664

>  <distance_score>  (349) 
2.2481639156560247

>  <path>  (349) 
/opt/xchem-fragalysis-2/maxwin/BulkDock/SCRATCH/505735/C4041-P44/C4041-P44.minimised.mol

>  <scratch_subdir>  (349) 
/opt/xchem-fragalysis-2/maxwin/BulkDock/SCRATCH/505735/C4041-P44

>  <fragmenstein_runtime>  (349) 
86.97835922241211

>  <fragmenstein_outcome>  (349) 
too moved

>  <fragmenstein_mode>  (349) 
expansion

>  <fragmenstein_error>  (349) 


$$$$
C4042-P142
     RDKit          3D

 52 55  0  0  0  0  0  0  0  0999 V2000
   -1.4036   -2.2685   33.2127 C   0  0  0  0  0  0  0  0  0  0  0  0
   -0.1134   -2.7158   32.4994 C   0  0  0  0  0  0  0  0  0  0  0  0
    0.2220   -1.6539   31.2824 C   0  0  0  0  0  0  0  0  0  0  0  0
    0.0855   -0.2525   31.7708 N   0  0  0  0  0  0  0  0  0  0  0  0
    0.4205    0.9308   31.4024 C   0  0  0  0  0  0  0  0  0  0  0  0
    1.1052    1.7044   30.4331 N   0  0  0  0  0  0  0  0  0  0  0  0
    0.9980    3.1732   30.4121 C   0  0  0  0  0  0  0  0  0  0  0  0
    1.6903    1.1849   29.2082 C   0  0  0  0  0  0  0  0  0  0  0  0
    0.5869    0.5619   28.4228 C   0  0  0  0  0  0  0  0  0  0  0  0
   -0.3264    1.4393   27.7921 C   0  0  0  0  0  0  0  0  0  0  0  0
   -1.5269    0.9963   27.2814 C   0  0  0  0  0  0  0  0  0  0  0  0
   -2.5212    1.9291   26.6415 C   0  0  0  0  0  0  0  0  0  0  0  0
   -1.9571    3.2167   26.3952 O   0  0  0  0  0  0  0  0  0  0  0  0
   -1.7783   -0.3620   27.4338 C   0  0  0  0  0  0  0  0  0  0  0  0
   -0.8712   -1.2513   28.0367 C   0  0  0  0  0  0  0  0  0  0  0  0
    0.3588   -0.8189   28.5018 C   0  0  0  0  0  0  0  0  0  0  0  0
    1.4050   -1.7331   29.1109 C   0  0  0  0  0  0  0  0  0  0  0  0
    1.4842   -3.1909   28.6970 C   0  0  0  0  0  0  0  0  0  0  0  0
    2.3815   -3.8255   29.7545 C   0  0  0  0  0  0  0  0  0  0  0  0
    2.4127   -2.8526   30.9197 C   0  0  0  0  0  0  0  0  0  0  0  0
    1.4844   -1.7905   30.5828 N   0  0  0  0  0  0  0  0  0  0  0  0
   -0.2468   -4.1549   32.1998 N   0  0  0  0  0  0  0  0  0  0  0  0
   -0.1402   -5.1878   33.1016 C   0  0  0  0  0  0  0  0  0  0  0  0
   -0.3831   -6.3390   32.5118 N   0  0  0  0  0  0  0  0  0  0  0  0
   -0.6752   -6.0703   31.2001 N   0  0  0  0  0  0  0  0  0  0  0  0
   -0.6281   -4.7631   31.0449 C   0  0  0  0  0  0  0  0  0  0  0  0
   -2.2687   -2.3377   32.5438 H   0  0  0  0  0  0  0  0  0  0  0  0
   -1.3319   -1.2395   33.5773 H   0  0  0  0  0  0  0  0  0  0  0  0
   -1.6039   -2.8939   34.0885 H   0  0  0  0  0  0  0  0  0  0  0  0
    0.7018   -2.6380   33.2314 H   0  0  0  0  0  0  0  0  0  0  0  0
   -0.6224   -1.8237   30.6074 H   0  0  0  0  0  0  0  0  0  0  0  0
    0.0414    1.6567   32.1451 H   0  0  0  0  0  0  0  0  0  0  0  0
    0.9342    3.5665   31.4325 H   0  0  0  0  0  0  0  0  0  0  0  0
    0.1018    3.4886   29.8716 H   0  0  0  0  0  0  0  0  0  0  0  0
    1.8765    3.6376   29.9514 H   0  0  0  0  0  0  0  0  0  0  0  0
    2.5192    0.5233   29.4635 H   0  0  0  0  0  0  0  0  0  0  0  0
    2.1587    1.9700   28.5991 H   0  0  0  0  0  0  0  0  0  0  0  0
   -0.0984    2.5028   27.7498 H   0  0  0  0  0  0  0  0  0  0  0  0
   -2.8519    1.5225   25.6839 H   0  0  0  0  0  0  0  0  0  0  0  0
   -3.3836    2.0584   27.2962 H   0  0  0  0  0  0  0  0  0  0  0  0
   -2.7097    3.8313   26.3053 H   0  0  0  0  0  0  0  0  0  0  0  0
   -2.6672   -0.8049   27.0082 H   0  0  0  0  0  0  0  0  0  0  0  0
   -1.1563   -2.2991   28.0791 H   0  0  0  0  0  0  0  0  0  0  0  0
    2.3687   -1.3392   28.7551 H   0  0  0  0  0  0  0  0  0  0  0  0
    0.5117   -3.6820   28.6693 H   0  0  0  0  0  0  0  0  0  0  0  0
    1.9341   -3.3090   27.7077 H   0  0  0  0  0  0  0  0  0  0  0  0
    3.3926   -3.9709   29.3562 H   0  0  0  0  0  0  0  0  0  0  0  0
    2.0045   -4.8105   30.0449 H   0  0  0  0  0  0  0  0  0  0  0  0
    3.4173   -2.4136   30.9778 H   0  0  0  0  0  0  0  0  0  0  0  0
    2.2709   -3.3482   31.8809 H   0  0  0  0  0  0  0  0  0  0  0  0
    0.0992   -5.0430   34.1460 H   0  0  0  0  0  0  0  0  0  0  0  0
   -0.8732   -4.2268   30.1413 H   0  0  0  0  0  0  0  0  0  0  0  0
  1  2  1  0
  2  3  1  0
  3  4  1  0
  4  5  2  3
  5  6  1  0
  6  7  1  0
  6  8  1  0
  8  9  1  0
  9 10  2  0
 10 11  1  0
 11 12  1  0
 12 13  1  0
 11 14  2  0
 14 15  1  0
 15 16  2  0
 16 17  1  0
 17 18  1  0
 18 19  1  0
 19 20  1  0
 20 21  1  0
  2 22  1  0
 22 23  1  0
 23 24  2  0
 24 25  1  0
 25 26  2  0
 21  3  1  0
 26 22  1  0
 16  9  1  0
 21 17  1  0
  1 27  1  0
  1 28  1  0
  1 29  1  0
  2 30  1  0
  3 31  1  0
  5 32  1  0
  7 33  1  0
  7 34  1  0
  7 35  1  0
  8 36  1  0
  8 37  1  0
 10 38  1  0
 12 39  1  0
 12 40  1  0
 13 41  1  0
 14 42  1  0
 15 43  1  0
 17 44  1  0
 18 45  1  0
 18 46  1  0
 19 47  1  0
 19 48  1  0
 20 49  1  0
 20 50  1  0
 23 51  1  0
 26 52  1  0
M  END
>  <Energy>  (350) 
49.443441781302255

>  <compound_id>  (350) 
4042

>  <target_id>  (350) 
1

>  <reference_id>  (350) 
142

>  <inspiration_ids>  (350) 
[142, 57]

>  <energy_score>  (350) 
-74.90995613098875

>  <distance_score>  (350) 
2.843993354526105

>  <path>  (350) 
/opt/xchem-fragalysis-2/maxwin/BulkDock/SCRATCH/505735/C4042-P142/C4042-P142.minimised.mol

>  <scratch_subdir>  (350) 
/opt/xchem-fragalysis-2/maxwin/BulkDock/SCRATCH/505735/C4042-P142

>  <fragmenstein_runtime>  (350) 
6.437549352645874

>  <fragmenstein_outcome>  (350) 
too moved

>  <fragmenstein_mode>  (350) 
expansion

>  <fragmenstein_error>  (350) 


$$$$
C4042-P57
     RDKit          3D

 52 55  0  0  0  0  0  0  0  0999 V2000
   -1.2603   -2.2367   33.3700 C   0  0  0  0  0  0  0  0  0  0  0  0
   -0.1104   -2.8055   32.5216 C   0  0  0  0  0  0  0  0  0  0  0  0
    0.1912   -1.7429   31.3029 C   0  0  0  0  0  0  0  0  0  0  0  0
    0.7454   -0.4652   31.8295 N   0  0  0  0  0  0  0  0  0  0  0  0
    0.9845    0.7349   31.4367 C   0  0  0  0  0  0  0  0  0  0  0  0
    1.0033    1.6482   30.3483 N   0  0  0  0  0  0  0  0  0  0  0  0
    1.0570    3.0995   30.5921 C   0  0  0  0  0  0  0  0  0  0  0  0
    1.5066    1.3610   29.0058 C   0  0  0  0  0  0  0  0  0  0  0  0
    0.4339    0.6096   28.3075 C   0  0  0  0  0  0  0  0  0  0  0  0
   -0.5419    1.3897   27.6605 C   0  0  0  0  0  0  0  0  0  0  0  0
   -1.7121    0.8407   27.1845 C   0  0  0  0  0  0  0  0  0  0  0  0
   -2.6947    1.7232   26.4664 C   0  0  0  0  0  0  0  0  0  0  0  0
   -2.7061    3.0294   27.0383 O   0  0  0  0  0  0  0  0  0  0  0  0
   -1.8552   -0.5342   27.3578 C   0  0  0  0  0  0  0  0  0  0  0  0
   -0.8829   -1.3286   28.0014 C   0  0  0  0  0  0  0  0  0  0  0  0
    0.2962   -0.7765   28.4713 C   0  0  0  0  0  0  0  0  0  0  0  0
    1.3747   -1.5603   29.1789 C   0  0  0  0  0  0  0  0  0  0  0  0
    2.1657   -2.5657   28.3675 C   0  0  0  0  0  0  0  0  0  0  0  0
    2.9826   -3.2852   29.4444 C   0  0  0  0  0  0  0  0  0  0  0  0
    2.2583   -2.9938   30.7565 C   0  0  0  0  0  0  0  0  0  0  0  0
    0.9944   -2.4089   30.3020 N   0  0  0  0  0  0  0  0  0  0  0  0
   -0.3728   -4.2335   32.2400 N   0  0  0  0  0  0  0  0  0  0  0  0
   -0.5974   -4.8830   31.0660 C   0  0  0  0  0  0  0  0  0  0  0  0
   -0.8067   -6.1685   31.2722 N   0  0  0  0  0  0  0  0  0  0  0  0
   -0.6797   -6.3960   32.6105 N   0  0  0  0  0  0  0  0  0  0  0  0
   -0.4008   -5.2412   33.1737 C   0  0  0  0  0  0  0  0  0  0  0  0
   -1.4004   -2.8115   34.2914 H   0  0  0  0  0  0  0  0  0  0  0  0
   -2.2046   -2.2619   32.8146 H   0  0  0  0  0  0  0  0  0  0  0  0
   -1.0648   -1.2006   33.6637 H   0  0  0  0  0  0  0  0  0  0  0  0
    0.7909   -2.8188   33.1517 H   0  0  0  0  0  0  0  0  0  0  0  0
   -0.7929   -1.5170   30.8738 H   0  0  0  0  0  0  0  0  0  0  0  0
    1.3111    1.3293   32.3118 H   0  0  0  0  0  0  0  0  0  0  0  0
    0.5795    3.6587   29.7800 H   0  0  0  0  0  0  0  0  0  0  0  0
    2.0951    3.4303   30.6994 H   0  0  0  0  0  0  0  0  0  0  0  0
    0.5167    3.3517   31.5111 H   0  0  0  0  0  0  0  0  0  0  0  0
    2.4869    0.8782   29.0286 H   0  0  0  0  0  0  0  0  0  0  0  0
    1.7151    2.2824   28.4422 H   0  0  0  0  0  0  0  0  0  0  0  0
   -0.3939    2.4664   27.5731 H   0  0  0  0  0  0  0  0  0  0  0  0
   -2.3859    1.8247   25.4221 H   0  0  0  0  0  0  0  0  0  0  0  0
   -3.7115    1.3344   26.4835 H   0  0  0  0  0  0  0  0  0  0  0  0
   -3.3307    2.9975   27.7925 H   0  0  0  0  0  0  0  0  0  0  0  0
   -2.7010   -1.0667   26.9395 H   0  0  0  0  0  0  0  0  0  0  0  0
   -1.0645   -2.3977   28.0922 H   0  0  0  0  0  0  0  0  0  0  0  0
    2.1256   -0.8737   29.5677 H   0  0  0  0  0  0  0  0  0  0  0  0
    1.5107   -3.2845   27.8636 H   0  0  0  0  0  0  0  0  0  0  0  0
    2.8089   -2.0972   27.6162 H   0  0  0  0  0  0  0  0  0  0  0  0
    4.0078   -2.9005   29.4787 H   0  0  0  0  0  0  0  0  0  0  0  0
    3.0279   -4.3589   29.2323 H   0  0  0  0  0  0  0  0  0  0  0  0
    2.8449   -2.2887   31.3588 H   0  0  0  0  0  0  0  0  0  0  0  0
    2.1405   -3.9150   31.3320 H   0  0  0  0  0  0  0  0  0  0  0  0
   -0.6063   -4.3975   30.0987 H   0  0  0  0  0  0  0  0  0  0  0  0
   -0.2337   -5.0745   34.2285 H   0  0  0  0  0  0  0  0  0  0  0  0
  1  2  1  0
  2  3  1  0
  3  4  1  0
  4  5  2  3
  5  6  1  0
  6  7  1  0
  6  8  1  0
  8  9  1  0
  9 10  2  0
 10 11  1  0
 11 12  1  0
 12 13  1  0
 11 14  2  0
 14 15  1  0
 15 16  2  0
 16 17  1  0
 17 18  1  0
 18 19  1  0
 19 20  1  0
 20 21  1  0
  2 22  1  0
 22 23  1  0
 23 24  2  0
 24 25  1  0
 25 26  2  0
 21  3  1  0
 26 22  1  0
 16  9  1  0
 21 17  1  0
  1 27  1  0
  1 28  1  0
  1 29  1  0
  2 30  1  0
  3 31  1  0
  5 32  1  0
  7 33  1  0
  7 34  1  0
  7 35  1  0
  8 36  1  0
  8 37  1  0
 10 38  1  0
 12 39  1  0
 12 40  1  0
 13 41  1  0
 14 42  1  0
 15 43  1  0
 17 44  1  0
 18 45  1  0
 18 46  1  0
 19 47  1  0
 19 48  1  0
 20 49  1  0
 20 50  1  0
 23 51  1  0
 26 52  1  0
M  END
>  <Energy>  (351) 
46.380567281247814

>  <compound_id>  (351) 
4042

>  <target_id>  (351) 
1

>  <reference_id>  (351) 
57

>  <inspiration_ids>  (351) 
[142, 57]

>  <energy_score>  (351) 
-77.97283063104436

>  <distance_score>  (351) 
2.9166875880873095

>  <path>  (351) 
/opt/xchem-fragalysis-2/maxwin/BulkDock/SCRATCH/505735/C4042-P57/C4042-P57.minimised.mol

>  <scratch_subdir>  (351) 
/opt/xchem-fragalysis-2/maxwin/BulkDock/SCRATCH/505735/C4042-P57

>  <fragmenstein_runtime>  (351) 
5.853293180465698

>  <fragmenstein_outcome>  (351) 
too moved

>  <fragmenstein_mode>  (351) 
expansion

>  <fragmenstein_error>  (351) 


$$$$
C4042-P142
     RDKit          3D

 52 55  0  0  0  0  0  0  0  0999 V2000
    0.9099   -4.0693   29.1796 C   0  0  0  0  0  0  0  0  0  0  0  0
    0.2763   -3.8572   30.5618 C   0  0  0  0  0  0  0  0  0  0  0  0
   -0.6084   -2.4990   30.5702 C   0  0  0  0  0  0  0  0  0  0  0  0
   -1.4638   -2.3168   29.3897 N   0  0  0  0  0  0  0  0  0  0  0  0
   -1.7487   -1.5617   28.4020 C   0  0  0  0  0  0  0  0  0  0  0  0
   -1.2897   -0.4276   27.7519 N   0  0  0  0  0  0  0  0  0  0  0  0
   -2.1332    0.3857   26.8361 C   0  0  0  0  0  0  0  0  0  0  0  0
    0.1325   -0.2904   27.6015 C   0  0  0  0  0  0  0  0  0  0  0  0
    0.5168    0.8560   28.4469 C   0  0  0  0  0  0  0  0  0  0  0  0
    0.1814    2.0868   27.8595 C   0  0  0  0  0  0  0  0  0  0  0  0
   -0.2033    3.1266   28.6508 C   0  0  0  0  0  0  0  0  0  0  0  0
   -1.1237    4.1847   28.0917 C   0  0  0  0  0  0  0  0  0  0  0  0
   -1.5072    3.9552   26.7336 O   0  0  0  0  0  0  0  0  0  0  0  0
    0.1845    3.0458   29.9903 C   0  0  0  0  0  0  0  0  0  0  0  0
    0.6900    1.8478   30.5577 C   0  0  0  0  0  0  0  0  0  0  0  0
    0.8010    0.6867   29.7999 C   0  0  0  0  0  0  0  0  0  0  0  0
    1.1462   -0.7013   30.3335 C   0  0  0  0  0  0  0  0  0  0  0  0
    2.3857   -0.7243   31.2229 C   0  0  0  0  0  0  0  0  0  0  0  0
    1.8429   -0.7520   32.6288 C   0  0  0  0  0  0  0  0  0  0  0  0
    0.5128   -1.4679   32.5033 C   0  0  0  0  0  0  0  0  0  0  0  0
    0.0648   -1.3044   31.1149 N   0  0  0  0  0  0  0  0  0  0  0  0
   -0.3296   -5.0740   31.1310 N   0  0  0  0  0  0  0  0  0  0  0  0
   -0.8882   -5.2307   32.3710 C   0  0  0  0  0  0  0  0  0  0  0  0
   -1.1998   -6.4940   32.5739 N   0  0  0  0  0  0  0  0  0  0  0  0
   -0.7907   -7.2062   31.4809 N   0  0  0  0  0  0  0  0  0  0  0  0
   -0.2180   -6.3556   30.6651 C   0  0  0  0  0  0  0  0  0  0  0  0
    1.5391   -3.2311   28.8807 H   0  0  0  0  0  0  0  0  0  0  0  0
    1.5647   -4.9462   29.1588 H   0  0  0  0  0  0  0  0  0  0  0  0
    0.1371   -4.1851   28.4194 H   0  0  0  0  0  0  0  0  0  0  0  0
    1.1330   -3.7110   31.2320 H   0  0  0  0  0  0  0  0  0  0  0  0
   -1.3683   -2.6952   31.3392 H   0  0  0  0  0  0  0  0  0  0  0  0
   -2.6374   -1.8982   27.8485 H   0  0  0  0  0  0  0  0  0  0  0  0
   -2.7238   -0.2623   26.1955 H   0  0  0  0  0  0  0  0  0  0  0  0
   -1.5640    1.0266   26.1724 H   0  0  0  0  0  0  0  0  0  0  0  0
   -2.7609    1.0655   27.4087 H   0  0  0  0  0  0  0  0  0  0  0  0
    0.6709   -1.2204   27.7815 H   0  0  0  0  0  0  0  0  0  0  0  0
    0.4228   -0.0058   26.6203 H   0  0  0  0  0  0  0  0  0  0  0  0
   -0.0005    2.1560   26.7917 H   0  0  0  0  0  0  0  0  0  0  0  0
   -2.0496    4.1819   28.6682 H   0  0  0  0  0  0  0  0  0  0  0  0
   -0.6474    5.1675   28.1554 H   0  0  0  0  0  0  0  0  0  0  0  0
   -2.2568    4.5600   26.5648 H   0  0  0  0  0  0  0  0  0  0  0  0
    0.0218    3.8977   30.6471 H   0  0  0  0  0  0  0  0  0  0  0  0
    0.9018    1.8379   31.6218 H   0  0  0  0  0  0  0  0  0  0  0  0
    1.4385   -1.3310   29.5015 H   0  0  0  0  0  0  0  0  0  0  0  0
    2.9472   -1.6523   31.0501 H   0  0  0  0  0  0  0  0  0  0  0  0
    3.0732    0.1121   31.0612 H   0  0  0  0  0  0  0  0  0  0  0  0
    2.5231   -1.2603   33.3196 H   0  0  0  0  0  0  0  0  0  0  0  0
    1.6930    0.2650   33.0056 H   0  0  0  0  0  0  0  0  0  0  0  0
   -0.2245   -1.0328   33.1871 H   0  0  0  0  0  0  0  0  0  0  0  0
    0.6419   -2.5084   32.8129 H   0  0  0  0  0  0  0  0  0  0  0  0
   -1.0543   -4.4221   33.0702 H   0  0  0  0  0  0  0  0  0  0  0  0
    0.2877   -6.6264   29.7602 H   0  0  0  0  0  0  0  0  0  0  0  0
  1  2  1  0
  2  3  1  0
  3  4  1  0
  4  5  2  3
  5  6  1  0
  6  7  1  0
  6  8  1  0
  8  9  1  0
  9 10  2  0
 10 11  1  0
 11 12  1  0
 12 13  1  0
 11 14  2  0
 14 15  1  0
 15 16  2  0
 16 17  1  0
 17 18  1  0
 18 19  1  0
 19 20  1  0
 20 21  1  0
  2 22  1  0
 22 23  1  0
 23 24  2  0
 24 25  1  0
 25 26  2  0
 21  3  1  0
 26 22  1  0
 16  9  1  0
 21 17  1  0
  1 27  1  0
  1 28  1  0
  1 29  1  0
  2 30  1  0
  3 31  1  0
  5 32  1  0
  7 33  1  0
  7 34  1  0
  7 35  1  0
  8 36  1  0
  8 37  1  0
 10 38  1  0
 12 39  1  0
 12 40  1  0
 13 41  1  0
 14 42  1  0
 15 43  1  0
 17 44  1  0
 18 45  1  0
 18 46  1  0
 19 47  1  0
 19 48  1  0
 20 49  1  0
 20 50  1  0
 23 51  1  0
 26 52  1  0
M  END
>  <Energy>  (352) 
69.282508920049295

>  <compound_id>  (352) 
4042

>  <target_id>  (352) 
1

>  <reference_id>  (352) 
142

>  <inspiration_ids>  (352) 
[142, 70]

>  <energy_score>  (352) 
-24.29684352436186

>  <distance_score>  (352) 
2.8364225164850545

>  <path>  (352) 
/opt/xchem-fragalysis-2/maxwin/BulkDock/SCRATCH/505735/C4042-P142/C4042-P142.minimised.mol

>  <scratch_subdir>  (352) 
/opt/xchem-fragalysis-2/maxwin/BulkDock/SCRATCH/505735/C4042-P142

>  <fragmenstein_runtime>  (352) 
7.0841944217681885

>  <fragmenstein_outcome>  (352) 
too moved

>  <fragmenstein_mode>  (352) 
expansion

>  <fragmenstein_error>  (352) 


$$$$
C4042-P70
     RDKit          3D

 52 55  0  0  0  0  0  0  0  0999 V2000
    0.0038   -3.0526   33.0555 C   0  0  0  0  0  0  0  0  0  0  0  0
   -0.7495   -3.4963   31.7835 C   0  0  0  0  0  0  0  0  0  0  0  0
   -0.5488   -2.3681   30.6082 C   0  0  0  0  0  0  0  0  0  0  0  0
   -1.5290   -2.5556   29.5221 N   0  0  0  0  0  0  0  0  0  0  0  0
   -1.7950   -1.8182   28.5006 C   0  0  0  0  0  0  0  0  0  0  0  0
   -1.2819   -0.7204   27.8341 N   0  0  0  0  0  0  0  0  0  0  0  0
   -2.1157    0.1771   27.0058 C   0  0  0  0  0  0  0  0  0  0  0  0
    0.1616   -0.6498   27.6722 C   0  0  0  0  0  0  0  0  0  0  0  0
    0.5720    0.5651   28.4119 C   0  0  0  0  0  0  0  0  0  0  0  0
    0.2716    1.7471   27.7101 C   0  0  0  0  0  0  0  0  0  0  0  0
   -0.1461    2.8610   28.3883 C   0  0  0  0  0  0  0  0  0  0  0  0
   -1.1263    3.7587   27.6689 C   0  0  0  0  0  0  0  0  0  0  0  0
   -0.9833    5.1153   28.0060 O   0  0  0  0  0  0  0  0  0  0  0  0
    0.2054    2.9176   29.7336 C   0  0  0  0  0  0  0  0  0  0  0  0
    0.7115    1.7806   30.4144 C   0  0  0  0  0  0  0  0  0  0  0  0
    0.8262    0.5385   29.7806 C   0  0  0  0  0  0  0  0  0  0  0  0
    1.3216   -0.6970   30.5321 C   0  0  0  0  0  0  0  0  0  0  0  0
    2.8182   -0.8557   30.2524 C   0  0  0  0  0  0  0  0  0  0  0  0
    3.1060   -2.2800   30.6607 C   0  0  0  0  0  0  0  0  0  0  0  0
    1.8548   -3.0338   30.2502 C   0  0  0  0  0  0  0  0  0  0  0  0
    0.7976   -2.0352   30.1853 N   0  0  0  0  0  0  0  0  0  0  0  0
   -0.6091   -4.9347   31.5549 N   0  0  0  0  0  0  0  0  0  0  0  0
   -0.9014   -5.9147   32.4775 C   0  0  0  0  0  0  0  0  0  0  0  0
   -0.9626   -7.0903   31.8956 N   0  0  0  0  0  0  0  0  0  0  0  0
   -0.6129   -6.9036   30.5821 N   0  0  0  0  0  0  0  0  0  0  0  0
   -0.3591   -5.6207   30.4062 C   0  0  0  0  0  0  0  0  0  0  0  0
   -0.1290   -1.9813   33.2385 H   0  0  0  0  0  0  0  0  0  0  0  0
   -0.3744   -3.5706   33.9433 H   0  0  0  0  0  0  0  0  0  0  0  0
    1.0755   -3.2600   32.9946 H   0  0  0  0  0  0  0  0  0  0  0  0
   -1.8196   -3.4058   32.0288 H   0  0  0  0  0  0  0  0  0  0  0  0
   -0.9324   -1.4665   31.1095 H   0  0  0  0  0  0  0  0  0  0  0  0
   -2.7011   -2.1326   27.9641 H   0  0  0  0  0  0  0  0  0  0  0  0
   -2.8447   -0.4088   26.4671 H   0  0  0  0  0  0  0  0  0  0  0  0
   -1.5659    0.7107   26.2382 H   0  0  0  0  0  0  0  0  0  0  0  0
   -2.6021    0.9197   27.6370 H   0  0  0  0  0  0  0  0  0  0  0  0
    0.4348   -0.5049   26.6524 H   0  0  0  0  0  0  0  0  0  0  0  0
    0.6892   -1.5649   27.9369 H   0  0  0  0  0  0  0  0  0  0  0  0
    0.1380    1.7170   26.6330 H   0  0  0  0  0  0  0  0  0  0  0  0
   -0.9862    3.6893   26.5847 H   0  0  0  0  0  0  0  0  0  0  0  0
   -2.1507    3.4407   27.8895 H   0  0  0  0  0  0  0  0  0  0  0  0
   -1.3417    5.2323   28.9104 H   0  0  0  0  0  0  0  0  0  0  0  0
    0.0409    3.8347   30.2959 H   0  0  0  0  0  0  0  0  0  0  0  0
    0.9594    1.8785   31.4695 H   0  0  0  0  0  0  0  0  0  0  0  0
    1.1845   -0.5395   31.6107 H   0  0  0  0  0  0  0  0  0  0  0  0
    3.0560   -0.7265   29.1881 H   0  0  0  0  0  0  0  0  0  0  0  0
    3.4256   -0.1404   30.8175 H   0  0  0  0  0  0  0  0  0  0  0  0
    4.0084   -2.6750   30.1850 H   0  0  0  0  0  0  0  0  0  0  0  0
    3.2398   -2.3329   31.7481 H   0  0  0  0  0  0  0  0  0  0  0  0
    1.7043   -3.8547   30.9493 H   0  0  0  0  0  0  0  0  0  0  0  0
    1.9884   -3.4718   29.2545 H   0  0  0  0  0  0  0  0  0  0  0  0
   -1.0992   -5.7171   33.5209 H   0  0  0  0  0  0  0  0  0  0  0  0
   -0.0754   -5.1555   29.4715 H   0  0  0  0  0  0  0  0  0  0  0  0
  1  2  1  0
  2  3  1  0
  3  4  1  0
  4  5  2  3
  5  6  1  0
  6  7  1  0
  6  8  1  0
  8  9  1  0
  9 10  2  0
 10 11  1  0
 11 12  1  0
 12 13  1  0
 11 14  2  0
 14 15  1  0
 15 16  2  0
 16 17  1  0
 17 18  1  0
 18 19  1  0
 19 20  1  0
 20 21  1  0
  2 22  1  0
 22 23  1  0
 23 24  2  0
 24 25  1  0
 25 26  2  0
 21  3  1  0
 26 22  1  0
 16  9  1  0
 21 17  1  0
  1 27  1  0
  1 28  1  0
  1 29  1  0
  2 30  1  0
  3 31  1  0
  5 32  1  0
  7 33  1  0
  7 34  1  0
  7 35  1  0
  8 36  1  0
  8 37  1  0
 10 38  1  0
 12 39  1  0
 12 40  1  0
 13 41  1  0
 14 42  1  0
 15 43  1  0
 17 44  1  0
 18 45  1  0
 18 46  1  0
 19 47  1  0
 19 48  1  0
 20 49  1  0
 20 50  1  0
 23 51  1  0
 26 52  1  0
M  END
>  <Energy>  (353) 
62.887710666116625

>  <compound_id>  (353) 
4042

>  <target_id>  (353) 
1

>  <reference_id>  (353) 
70

>  <inspiration_ids>  (353) 
[142, 70]

>  <energy_score>  (353) 
-30.691641778293672

>  <distance_score>  (353) 
2.815418401655968

>  <path>  (353) 
/opt/xchem-fragalysis-2/maxwin/BulkDock/SCRATCH/505735/C4042-P70/C4042-P70.minimised.mol

>  <scratch_subdir>  (353) 
/opt/xchem-fragalysis-2/maxwin/BulkDock/SCRATCH/505735/C4042-P70

>  <fragmenstein_runtime>  (353) 
6.933050632476807

>  <fragmenstein_outcome>  (353) 
too moved

>  <fragmenstein_mode>  (353) 
expansion

>  <fragmenstein_error>  (353) 


$$$$
C3817-P142
     RDKit          3D

 68 71  0  0  0  0  0  0  0  0999 V2000
    2.2814   -1.5458   28.4981 C   0  0  0  0  0  0  0  0  0  0  0  0
    1.1574   -2.1300   29.3477 C   0  0  0  0  0  0  0  0  0  0  0  0
    0.3184   -1.0552   30.0688 C   0  0  0  0  0  0  0  0  0  0  0  0
   -0.7565   -1.6088   31.0455 C   0  0  0  0  0  0  0  0  0  0  0  0
   -0.2760   -2.6393   31.9585 N   0  0  0  0  0  0  0  0  0  0  0  0
    0.7993   -2.4020   32.7910 C   0  0  0  0  0  0  0  0  0  0  0  0
    1.3644   -3.4746   33.3529 C   0  0  0  0  0  0  0  0  0  0  0  0
    2.1644   -3.4471   34.6233 C   0  0  0  0  0  0  0  0  0  0  0  0
    1.2971   -3.7179   35.9052 C   0  0  0  0  0  0  0  0  0  0  0  0
    2.0657   -3.2916   37.0490 O   0  0  0  0  0  0  0  0  0  0  0  0
    1.8340   -1.9361   37.4080 C   0  0  0  0  0  0  0  0  0  0  0  0
    0.9104   -5.2115   36.0907 C   0  0  0  0  0  0  0  0  0  0  0  0
    0.3807   -5.5236   37.4930 C   0  0  0  0  0  0  0  0  0  0  0  0
    2.0666   -6.0140   35.8303 O   0  0  0  0  0  0  0  0  0  0  0  0
    1.7594   -7.2842   35.2997 C   0  0  0  0  0  0  0  0  0  0  0  0
    1.0096   -4.7412   32.7174 C   0  0  0  0  0  0  0  0  0  0  0  0
    1.6716   -5.1802   31.4567 C   0  0  0  0  0  0  0  0  0  0  0  0
    1.0705   -6.0251   30.5882 C   0  0  0  0  0  0  0  0  0  0  0  0
   -0.0749   -6.7399   31.0196 C   0  0  0  0  0  0  0  0  0  0  0  0
   -0.6560   -7.8543   30.6406 N   0  0  0  0  0  0  0  0  0  0  0  0
   -1.4254   -8.2763   31.7052 N   0  0  0  0  0  0  0  0  0  0  0  0
   -1.3050   -7.3958   32.6801 C   0  0  0  0  0  0  0  0  0  0  0  0
   -1.6308   -7.5630   33.9831 N   0  0  0  0  0  0  0  0  0  0  0  0
   -0.6768   -6.2721   32.1723 N   0  0  0  0  0  0  0  0  0  0  0  0
   -0.3144   -5.0419   32.7390 C   0  0  0  0  0  0  0  0  0  0  0  0
   -1.0182   -3.8277   32.1036 C   0  0  0  0  0  0  0  0  0  0  0  0
   -2.1576   -3.9566   31.6664 O   0  0  0  0  0  0  0  0  0  0  0  0
   -0.3657   -0.1157   29.0943 C   0  0  0  0  0  0  0  0  0  0  0  0
   -0.1825    1.2650   29.2145 C   0  0  0  0  0  0  0  0  0  0  0  0
   -0.8525    2.1478   28.3644 C   0  0  0  0  0  0  0  0  0  0  0  0
   -1.7023    1.6741   27.3609 C   0  0  0  0  0  0  0  0  0  0  0  0
   -2.5185    2.6012   26.4991 C   0  0  0  0  0  0  0  0  0  0  0  0
   -1.9436    3.9015   26.4633 O   0  0  0  0  0  0  0  0  0  0  0  0
   -1.8494    0.2925   27.2194 C   0  0  0  0  0  0  0  0  0  0  0  0
   -1.2058   -0.5937   28.0827 C   0  0  0  0  0  0  0  0  0  0  0  0
    2.8698   -2.3529   28.0499 H   0  0  0  0  0  0  0  0  0  0  0  0
    2.9556   -0.9373   29.1095 H   0  0  0  0  0  0  0  0  0  0  0  0
    1.8983   -0.9215   27.6865 H   0  0  0  0  0  0  0  0  0  0  0  0
    1.6297   -2.7787   30.0865 H   0  0  0  0  0  0  0  0  0  0  0  0
    0.5255   -2.7741   28.7257 H   0  0  0  0  0  0  0  0  0  0  0  0
    1.0268   -0.4690   30.6714 H   0  0  0  0  0  0  0  0  0  0  0  0
   -1.5978   -2.0118   30.4692 H   0  0  0  0  0  0  0  0  0  0  0  0
   -1.1686   -0.7938   31.6558 H   0  0  0  0  0  0  0  0  0  0  0  0
    1.0292   -1.3726   33.0448 H   0  0  0  0  0  0  0  0  0  0  0  0
    3.0121   -4.1400   34.5636 H   0  0  0  0  0  0  0  0  0  0  0  0
    2.6349   -2.4597   34.7187 H   0  0  0  0  0  0  0  0  0  0  0  0
    0.3675   -3.1335   35.8670 H   0  0  0  0  0  0  0  0  0  0  0  0
    2.4844   -1.6891   38.2513 H   0  0  0  0  0  0  0  0  0  0  0  0
    0.7944   -1.8005   37.7212 H   0  0  0  0  0  0  0  0  0  0  0  0
    2.0668   -1.2621   36.5792 H   0  0  0  0  0  0  0  0  0  0  0  0
    0.1274   -5.4466   35.3669 H   0  0  0  0  0  0  0  0  0  0  0  0
   -0.4415   -4.8527   37.7603 H   0  0  0  0  0  0  0  0  0  0  0  0
    0.0100   -6.5522   37.5483 H   0  0  0  0  0  0  0  0  0  0  0  0
    1.1715   -5.4380   38.2457 H   0  0  0  0  0  0  0  0  0  0  0  0
    1.0313   -7.8094   35.9221 H   0  0  0  0  0  0  0  0  0  0  0  0
    1.3810   -7.1930   34.2805 H   0  0  0  0  0  0  0  0  0  0  0  0
    2.6781   -7.8760   35.2682 H   0  0  0  0  0  0  0  0  0  0  0  0
    2.5683   -4.6388   31.1634 H   0  0  0  0  0  0  0  0  0  0  0  0
    1.4834   -6.2146   29.6069 H   0  0  0  0  0  0  0  0  0  0  0  0
   -1.7018   -8.5509   34.2744 H   0  0  0  0  0  0  0  0  0  0  0  0
   -1.1895   -7.0062   34.7024 H   0  0  0  0  0  0  0  0  0  0  0  0
    0.4695    1.6782   29.9798 H   0  0  0  0  0  0  0  0  0  0  0  0
   -0.7196    3.2204   28.4988 H   0  0  0  0  0  0  0  0  0  0  0  0
   -2.5595    2.2314   25.4702 H   0  0  0  0  0  0  0  0  0  0  0  0
   -3.5357    2.6668   26.8960 H   0  0  0  0  0  0  0  0  0  0  0  0
   -2.6833    4.5328   26.3575 H   0  0  0  0  0  0  0  0  0  0  0  0
   -2.4802   -0.1155   26.4337 H   0  0  0  0  0  0  0  0  0  0  0  0
   -1.3789   -1.6592   27.9421 H   0  0  0  0  0  0  0  0  0  0  0  0
  1  2  1  0
  2  3  1  0
  3  4  1  0
  4  5  1  0
  5  6  1  0
  6  7  2  0
  7  8  1  0
  8  9  1  0
  9 10  1  0
 10 11  1  0
  9 12  1  0
 12 13  1  0
 12 14  1  0
 14 15  1  0
  7 16  1  0
 16 17  1  0
 17 18  2  0
 18 19  1  0
 19 20  2  0
 20 21  1  0
 21 22  2  0
 22 23  1  0
 22 24  1  0
 24 25  1  0
 25 26  1  0
 26 27  2  0
  3 28  1  0
 28 29  2  0
 29 30  1  0
 30 31  2  0
 31 32  1  0
 32 33  1  0
 31 34  1  0
 34 35  2  0
 26  5  1  0
 35 28  1  0
 25 16  2  0
 24 19  1  0
  1 36  1  0
  1 37  1  0
  1 38  1  0
  2 39  1  0
  2 40  1  0
  3 41  1  0
  4 42  1  0
  4 43  1  0
  6 44  1  0
  8 45  1  0
  8 46  1  0
  9 47  1  0
 11 48  1  0
 11 49  1  0
 11 50  1  0
 12 51  1  0
 13 52  1  0
 13 53  1  0
 13 54  1  0
 15 55  1  0
 15 56  1  0
 15 57  1  0
 17 58  1  0
 18 59  1  0
 23 60  1  0
 23 61  1  0
 29 62  1  0
 30 63  1  0
 32 64  1  0
 32 65  1  0
 33 66  1  0
 34 67  1  0
 35 68  1  0
M  END
>  <Energy>  (354) 
178.87787095252241

>  <compound_id>  (354) 
3817

>  <target_id>  (354) 
1

>  <reference_id>  (354) 
142

>  <inspiration_ids>  (354) 
[142, 78]

>  <energy_score>  (354) 
-4.800603202118907

>  <distance_score>  (354) 
1.1942270838222866

>  <path>  (354) 
/opt/xchem-fragalysis-2/maxwin/BulkDock/SCRATCH/505735/C3817-P142/C3817-P142.minimised.mol

>  <scratch_subdir>  (354) 
/opt/xchem-fragalysis-2/maxwin/BulkDock/SCRATCH/505735/C3817-P142

>  <fragmenstein_runtime>  (354) 
13.146419286727905

>  <fragmenstein_outcome>  (354) 
too moved

>  <fragmenstein_mode>  (354) 
expansion

>  <fragmenstein_error>  (354) 


$$$$
C3817-P78
     RDKit          3D

 68 71  0  0  0  0  0  0  0  0999 V2000
    2.3176   -1.7438   28.3827 C   0  0  0  0  0  0  0  0  0  0  0  0
    1.1981   -2.2871   29.2646 C   0  0  0  0  0  0  0  0  0  0  0  0
    0.4029   -1.1784   29.9868 C   0  0  0  0  0  0  0  0  0  0  0  0
   -0.6487   -1.6978   31.0069 C   0  0  0  0  0  0  0  0  0  0  0  0
   -0.1538   -2.7419   31.8991 N   0  0  0  0  0  0  0  0  0  0  0  0
    0.9436   -2.5188   32.7063 C   0  0  0  0  0  0  0  0  0  0  0  0
    1.4987   -3.5951   33.2711 C   0  0  0  0  0  0  0  0  0  0  0  0
    2.2867   -3.5635   34.5509 C   0  0  0  0  0  0  0  0  0  0  0  0
    1.3952   -3.7762   35.8302 C   0  0  0  0  0  0  0  0  0  0  0  0
    2.1686   -3.3629   36.9750 O   0  0  0  0  0  0  0  0  0  0  0  0
    2.0013   -1.9899   37.3024 C   0  0  0  0  0  0  0  0  0  0  0  0
    0.9434   -5.2495   36.0408 C   0  0  0  0  0  0  0  0  0  0  0  0
    0.3853   -5.5091   37.4431 C   0  0  0  0  0  0  0  0  0  0  0  0
    2.0671   -6.1036   35.8092 O   0  0  0  0  0  0  0  0  0  0  0  0
    1.7229   -7.3876   35.3384 C   0  0  0  0  0  0  0  0  0  0  0  0
    1.1246   -4.8673   32.6624 C   0  0  0  0  0  0  0  0  0  0  0  0
    1.8493   -5.4365   31.4963 C   0  0  0  0  0  0  0  0  0  0  0  0
    1.2682   -6.3240   30.6564 C   0  0  0  0  0  0  0  0  0  0  0  0
    0.0486   -6.9358   31.0411 C   0  0  0  0  0  0  0  0  0  0  0  0
   -0.5895   -8.0237   30.6737 N   0  0  0  0  0  0  0  0  0  0  0  0
   -1.4440   -8.3481   31.7079 N   0  0  0  0  0  0  0  0  0  0  0  0
   -1.3131   -7.4320   32.6471 C   0  0  0  0  0  0  0  0  0  0  0  0
   -1.6773   -7.5340   33.9473 N   0  0  0  0  0  0  0  0  0  0  0  0
   -0.5989   -6.3687   32.1209 N   0  0  0  0  0  0  0  0  0  0  0  0
   -0.2039   -5.1388   32.6571 C   0  0  0  0  0  0  0  0  0  0  0  0
   -0.9123   -3.9135   32.0721 C   0  0  0  0  0  0  0  0  0  0  0  0
   -2.0743   -4.0159   31.6929 O   0  0  0  0  0  0  0  0  0  0  0  0
   -0.2903   -0.2415   29.0137 C   0  0  0  0  0  0  0  0  0  0  0  0
   -0.0759    1.1375   29.1025 C   0  0  0  0  0  0  0  0  0  0  0  0
   -0.7509    2.0190   28.2535 C   0  0  0  0  0  0  0  0  0  0  0  0
   -1.6471    1.5472   27.2897 C   0  0  0  0  0  0  0  0  0  0  0  0
   -2.4822    2.4778   26.4474 C   0  0  0  0  0  0  0  0  0  0  0  0
   -1.9328    3.7895   26.4256 O   0  0  0  0  0  0  0  0  0  0  0  0
   -1.8180    0.1653   27.1711 C   0  0  0  0  0  0  0  0  0  0  0  0
   -1.1642   -0.7192   28.0298 C   0  0  0  0  0  0  0  0  0  0  0  0
    2.8727   -2.5717   27.9301 H   0  0  0  0  0  0  0  0  0  0  0  0
    3.0223   -1.1474   28.9711 H   0  0  0  0  0  0  0  0  0  0  0  0
    1.9318   -1.1184   27.5732 H   0  0  0  0  0  0  0  0  0  0  0  0
    1.6670   -2.9474   29.9985 H   0  0  0  0  0  0  0  0  0  0  0  0
    0.5351   -2.9188   28.6623 H   0  0  0  0  0  0  0  0  0  0  0  0
    1.1408   -0.5965   30.5575 H   0  0  0  0  0  0  0  0  0  0  0  0
   -1.5230   -2.0796   30.4665 H   0  0  0  0  0  0  0  0  0  0  0  0
   -1.0129   -0.8710   31.6313 H   0  0  0  0  0  0  0  0  0  0  0  0
    1.1892   -1.4913   32.9538 H   0  0  0  0  0  0  0  0  0  0  0  0
    3.1108   -4.2863   34.5187 H   0  0  0  0  0  0  0  0  0  0  0  0
    2.7891   -2.5905   34.6285 H   0  0  0  0  0  0  0  0  0  0  0  0
    0.4915   -3.1541   35.7718 H   0  0  0  0  0  0  0  0  0  0  0  0
    2.6508   -1.7585   38.1508 H   0  0  0  0  0  0  0  0  0  0  0  0
    0.9654   -1.7951   37.5962 H   0  0  0  0  0  0  0  0  0  0  0  0
    2.2805   -1.3461   36.4641 H   0  0  0  0  0  0  0  0  0  0  0  0
    0.1600   -5.4669   35.3120 H   0  0  0  0  0  0  0  0  0  0  0  0
   -0.4047   -4.7930   37.6896 H   0  0  0  0  0  0  0  0  0  0  0  0
   -0.0384   -6.5161   37.5125 H   0  0  0  0  0  0  0  0  0  0  0  0
    1.1721   -5.4497   38.2024 H   0  0  0  0  0  0  0  0  0  0  0  0
    1.0190   -7.8885   36.0085 H   0  0  0  0  0  0  0  0  0  0  0  0
    1.3038   -7.3302   34.3327 H   0  0  0  0  0  0  0  0  0  0  0  0
    2.6344   -7.9897   35.2917 H   0  0  0  0  0  0  0  0  0  0  0  0
    2.7961   -4.9703   31.2324 H   0  0  0  0  0  0  0  0  0  0  0  0
    1.7410   -6.6215   29.7309 H   0  0  0  0  0  0  0  0  0  0  0  0
   -1.7796   -8.5067   34.2677 H   0  0  0  0  0  0  0  0  0  0  0  0
   -1.2297   -6.9576   34.6474 H   0  0  0  0  0  0  0  0  0  0  0  0
    0.6056    1.5508   29.8417 H   0  0  0  0  0  0  0  0  0  0  0  0
   -0.5920    3.0910   28.3651 H   0  0  0  0  0  0  0  0  0  0  0  0
   -2.5238    2.1204   25.4141 H   0  0  0  0  0  0  0  0  0  0  0  0
   -3.4976    2.5230   26.8523 H   0  0  0  0  0  0  0  0  0  0  0  0
   -2.6726    4.4016   26.2480 H   0  0  0  0  0  0  0  0  0  0  0  0
   -2.4678   -0.2470   26.4045 H   0  0  0  0  0  0  0  0  0  0  0  0
   -1.3564   -1.7840   27.9079 H   0  0  0  0  0  0  0  0  0  0  0  0
  1  2  1  0
  2  3  1  0
  3  4  1  0
  4  5  1  0
  5  6  1  0
  6  7  2  0
  7  8  1  0
  8  9  1  0
  9 10  1  0
 10 11  1  0
  9 12  1  0
 12 13  1  0
 12 14  1  0
 14 15  1  0
  7 16  1  0
 16 17  1  0
 17 18  2  0
 18 19  1  0
 19 20  2  0
 20 21  1  0
 21 22  2  0
 22 23  1  0
 22 24  1  0
 24 25  1  0
 25 26  1  0
 26 27  2  0
  3 28  1  0
 28 29  2  0
 29 30  1  0
 30 31  2  0
 31 32  1  0
 32 33  1  0
 31 34  1  0
 34 35  2  0
 26  5  1  0
 35 28  1  0
 25 16  2  0
 24 19  1  0
  1 36  1  0
  1 37  1  0
  1 38  1  0
  2 39  1  0
  2 40  1  0
  3 41  1  0
  4 42  1  0
  4 43  1  0
  6 44  1  0
  8 45  1  0
  8 46  1  0
  9 47  1  0
 11 48  1  0
 11 49  1  0
 11 50  1  0
 12 51  1  0
 13 52  1  0
 13 53  1  0
 13 54  1  0
 15 55  1  0
 15 56  1  0
 15 57  1  0
 17 58  1  0
 18 59  1  0
 23 60  1  0
 23 61  1  0
 29 62  1  0
 30 63  1  0
 32 64  1  0
 32 65  1  0
 33 66  1  0
 34 67  1  0
 35 68  1  0
M  END
>  <Energy>  (355) 
172.98450245169536

>  <compound_id>  (355) 
3817

>  <target_id>  (355) 
1

>  <reference_id>  (355) 
78

>  <inspiration_ids>  (355) 
[142, 78]

>  <energy_score>  (355) 
-10.693971702940189

>  <distance_score>  (355) 
1.1690858681117782

>  <path>  (355) 
/opt/xchem-fragalysis-2/maxwin/BulkDock/SCRATCH/505735/C3817-P78/C3817-P78.minimised.mol

>  <scratch_subdir>  (355) 
/opt/xchem-fragalysis-2/maxwin/BulkDock/SCRATCH/505735/C3817-P78

>  <fragmenstein_runtime>  (355) 
12.52036714553833

>  <fragmenstein_outcome>  (355) 
too moved

>  <fragmenstein_mode>  (355) 
expansion

>  <fragmenstein_error>  (355) 


$$$$
C115-P142
     RDKit          3D

 42 44  0  0  0  0  0  0  0  0999 V2000
    1.5333   -5.8896   29.4927 O   0  0  0  0  0  0  0  0  0  0  0  0
    1.1233   -5.1908   30.3429 C   0  0  0  0  0  0  0  0  0  0  0  0
    0.5736   -5.6640   31.6896 C   0  0  0  0  0  0  0  0  0  0  0  0
   -0.3124   -6.7957   31.6579 N   0  0  0  0  0  0  0  0  0  0  0  0
   -1.1491   -7.1440   32.6713 C   0  0  0  0  0  0  0  0  0  0  0  0
   -1.8235   -8.2079   32.3168 N   0  0  0  0  0  0  0  0  0  0  0  0
   -1.3832   -8.5932   31.0799 N   0  0  0  0  0  0  0  0  0  0  0  0
   -0.4451   -7.7556   30.7169 C   0  0  0  0  0  0  0  0  0  0  0  0
    1.0957   -3.6809   30.4411 N   0  0  0  0  0  0  0  0  0  0  0  0
    1.4945   -2.6124   29.4285 C   0  0  0  0  0  0  0  0  0  0  0  0
    1.2989   -1.1293   29.8402 C   0  0  0  0  0  0  0  0  0  0  0  0
    2.1569   -0.7683   31.0622 C   0  0  0  0  0  0  0  0  0  0  0  0
    2.0163   -1.9519   31.9970 C   0  0  0  0  0  0  0  0  0  0  0  0
    2.7951   -2.1179   33.2861 C   0  0  0  0  0  0  0  0  0  0  0  0
    4.1884   -2.0899   33.3242 C   0  0  0  0  0  0  0  0  0  0  0  0
    4.8708   -2.7081   34.3799 C   0  0  0  0  0  0  0  0  0  0  0  0
    4.1785   -3.3496   35.4185 C   0  0  0  0  0  0  0  0  0  0  0  0
    4.9090   -4.1986   36.4165 C   0  0  0  0  0  0  0  0  0  0  0  0
    4.9371   -5.5385   35.9442 O   0  0  0  0  0  0  0  0  0  0  0  0
    2.7853   -3.2708   35.4471 C   0  0  0  0  0  0  0  0  0  0  0  0
    2.1040   -2.6537   34.3954 C   0  0  0  0  0  0  0  0  0  0  0  0
    2.3334   -3.1597   31.0974 C   0  0  0  0  0  0  0  0  0  0  0  0
    0.0291   -4.8532   32.1887 H   0  0  0  0  0  0  0  0  0  0  0  0
    1.4236   -5.9446   32.3222 H   0  0  0  0  0  0  0  0  0  0  0  0
   -1.2422   -6.6093   33.6065 H   0  0  0  0  0  0  0  0  0  0  0  0
    0.1455   -7.8445   29.8216 H   0  0  0  0  0  0  0  0  0  0  0  0
    0.7460   -2.7799   28.6377 H   0  0  0  0  0  0  0  0  0  0  0  0
    2.4231   -2.8254   28.8700 H   0  0  0  0  0  0  0  0  0  0  0  0
    1.5414   -0.4694   29.0003 H   0  0  0  0  0  0  0  0  0  0  0  0
    0.2411   -0.9676   30.0846 H   0  0  0  0  0  0  0  0  0  0  0  0
    3.2005   -0.6192   30.7611 H   0  0  0  0  0  0  0  0  0  0  0  0
    1.8130    0.1612   31.5276 H   0  0  0  0  0  0  0  0  0  0  0  0
    0.9524   -1.9874   32.2796 H   0  0  0  0  0  0  0  0  0  0  0  0
    4.7616   -1.6943   32.4891 H   0  0  0  0  0  0  0  0  0  0  0  0
    5.9580   -2.7552   34.3450 H   0  0  0  0  0  0  0  0  0  0  0  0
    5.9366   -3.8454   36.5537 H   0  0  0  0  0  0  0  0  0  0  0  0
    4.4088   -4.1710   37.3906 H   0  0  0  0  0  0  0  0  0  0  0  0
    5.4192   -6.0524   36.6136 H   0  0  0  0  0  0  0  0  0  0  0  0
    2.2206   -3.7521   36.2423 H   0  0  0  0  0  0  0  0  0  0  0  0
    1.0151   -2.6914   34.4002 H   0  0  0  0  0  0  0  0  0  0  0  0
    3.2838   -3.1224   30.5302 H   0  0  0  0  0  0  0  0  0  0  0  0
    2.5980   -3.9830   31.7814 H   0  0  0  0  0  0  0  0  0  0  0  0
  1  2  2  0
  2  3  1  0
  3  4  1  0
  4  5  1  0
  5  6  2  0
  6  7  1  0
  7  8  2  0
  2  9  1  0
  9 10  1  0
 10 11  1  0
 11 12  1  0
 12 13  1  0
 13 14  1  0
 14 15  2  0
 15 16  1  0
 16 17  2  0
 17 18  1  0
 18 19  1  0
 17 20  1  0
 20 21  2  0
 13 22  1  0
  8  4  1  0
 22  9  1  0
 21 14  1  0
  3 23  1  0
  3 24  1  0
  5 25  1  0
  8 26  1  0
 10 27  1  0
 10 28  1  0
 11 29  1  0
 11 30  1  0
 12 31  1  0
 12 32  1  0
 13 33  1  0
 15 34  1  0
 16 35  1  0
 18 36  1  0
 18 37  1  0
 19 38  1  0
 20 39  1  0
 21 40  1  0
 22 41  1  0
 22 42  1  0
M  END
>  <Energy>  (356) 
121.64916263848423

>  <compound_id>  (356) 
115

>  <target_id>  (356) 
1

>  <reference_id>  (356) 
142

>  <inspiration_ids>  (356) 
[142, 129]

>  <energy_score>  (356) 
64.79210464123392

>  <distance_score>  (356) 
1.6968441332830602

>  <path>  (356) 
/opt/xchem-fragalysis-2/maxwin/BulkDock/SCRATCH/505735/C115-P142/C115-P142.minimised.mol

>  <scratch_subdir>  (356) 
/opt/xchem-fragalysis-2/maxwin/BulkDock/SCRATCH/505735/C115-P142

>  <fragmenstein_runtime>  (356) 
2.999107599258423

>  <fragmenstein_outcome>  (356) 
too moved

>  <fragmenstein_mode>  (356) 
expansion

>  <fragmenstein_error>  (356) 


$$$$
C115-P129
     RDKit          3D

 42 44  0  0  0  0  0  0  0  0999 V2000
    1.6118   -6.0397   29.5471 O   0  0  0  0  0  0  0  0  0  0  0  0
    1.1834   -5.3303   30.3798 C   0  0  0  0  0  0  0  0  0  0  0  0
    0.6371   -5.7872   31.7326 C   0  0  0  0  0  0  0  0  0  0  0  0
   -0.2855   -6.8894   31.7066 N   0  0  0  0  0  0  0  0  0  0  0  0
   -1.1084   -7.2291   32.7351 C   0  0  0  0  0  0  0  0  0  0  0  0
   -1.8071   -8.2812   32.3910 N   0  0  0  0  0  0  0  0  0  0  0  0
   -1.4076   -8.6570   31.1363 N   0  0  0  0  0  0  0  0  0  0  0  0
   -0.4719   -7.8257   30.7505 C   0  0  0  0  0  0  0  0  0  0  0  0
    1.1255   -3.8184   30.4442 N   0  0  0  0  0  0  0  0  0  0  0  0
    1.5086   -2.7642   29.4091 C   0  0  0  0  0  0  0  0  0  0  0  0
    1.2847   -1.2748   29.7870 C   0  0  0  0  0  0  0  0  0  0  0  0
    2.1300   -0.8702   31.0044 C   0  0  0  0  0  0  0  0  0  0  0  0
    2.0056   -2.0350   31.9648 C   0  0  0  0  0  0  0  0  0  0  0  0
    2.7797   -2.1592   33.2617 C   0  0  0  0  0  0  0  0  0  0  0  0
    4.1726   -2.1168   33.3042 C   0  0  0  0  0  0  0  0  0  0  0  0
    4.8571   -2.7102   34.3726 C   0  0  0  0  0  0  0  0  0  0  0  0
    4.1668   -3.3398   35.4198 C   0  0  0  0  0  0  0  0  0  0  0  0
    4.8999   -4.1674   36.4336 C   0  0  0  0  0  0  0  0  0  0  0  0
    4.8916   -5.5239   36.0101 O   0  0  0  0  0  0  0  0  0  0  0  0
    2.7729   -3.2700   35.4442 C   0  0  0  0  0  0  0  0  0  0  0  0
    2.0895   -2.6779   34.3796 C   0  0  0  0  0  0  0  0  0  0  0  0
    2.3493   -3.2582   31.0946 C   0  0  0  0  0  0  0  0  0  0  0  0
    0.1257   -4.9622   32.2432 H   0  0  0  0  0  0  0  0  0  0  0  0
    1.4869   -6.0957   32.3525 H   0  0  0  0  0  0  0  0  0  0  0  0
   -1.1712   -6.6991   33.6755 H   0  0  0  0  0  0  0  0  0  0  0  0
    0.0788   -7.8998   29.8273 H   0  0  0  0  0  0  0  0  0  0  0  0
    0.7665   -2.9629   28.6198 H   0  0  0  0  0  0  0  0  0  0  0  0
    2.4435   -2.9724   28.8597 H   0  0  0  0  0  0  0  0  0  0  0  0
    1.5192   -0.6301   28.9331 H   0  0  0  0  0  0  0  0  0  0  0  0
    0.2229   -1.1272   30.0228 H   0  0  0  0  0  0  0  0  0  0  0  0
    3.1724   -0.7094   30.7050 H   0  0  0  0  0  0  0  0  0  0  0  0
    1.7669    0.0631   31.4469 H   0  0  0  0  0  0  0  0  0  0  0  0
    0.9409   -2.0837   32.2422 H   0  0  0  0  0  0  0  0  0  0  0  0
    4.7449   -1.7321   32.4632 H   0  0  0  0  0  0  0  0  0  0  0  0
    5.9447   -2.7483   34.3416 H   0  0  0  0  0  0  0  0  0  0  0  0
    5.9371   -3.8317   36.5392 H   0  0  0  0  0  0  0  0  0  0  0  0
    4.4186   -4.0939   37.4149 H   0  0  0  0  0  0  0  0  0  0  0  0
    5.3822   -6.0222   36.6851 H   0  0  0  0  0  0  0  0  0  0  0  0
    2.2105   -3.7406   36.2474 H   0  0  0  0  0  0  0  0  0  0  0  0
    1.0010   -2.7241   34.3823 H   0  0  0  0  0  0  0  0  0  0  0  0
    3.3017   -3.2165   30.5312 H   0  0  0  0  0  0  0  0  0  0  0  0
    2.6244   -4.0609   31.7990 H   0  0  0  0  0  0  0  0  0  0  0  0
  1  2  2  0
  2  3  1  0
  3  4  1  0
  4  5  1  0
  5  6  2  0
  6  7  1  0
  7  8  2  0
  2  9  1  0
  9 10  1  0
 10 11  1  0
 11 12  1  0
 12 13  1  0
 13 14  1  0
 14 15  2  0
 15 16  1  0
 16 17  2  0
 17 18  1  0
 18 19  1  0
 17 20  1  0
 20 21  2  0
 13 22  1  0
  8  4  1  0
 22  9  1  0
 21 14  1  0
  3 23  1  0
  3 24  1  0
  5 25  1  0
  8 26  1  0
 10 27  1  0
 10 28  1  0
 11 29  1  0
 11 30  1  0
 12 31  1  0
 12 32  1  0
 13 33  1  0
 15 34  1  0
 16 35  1  0
 18 36  1  0
 18 37  1  0
 19 38  1  0
 20 39  1  0
 21 40  1  0
 22 41  1  0
 22 42  1  0
M  END
>  <Energy>  (357) 
121.70407538663932

>  <compound_id>  (357) 
115

>  <target_id>  (357) 
1

>  <reference_id>  (357) 
129

>  <inspiration_ids>  (357) 
[142, 129]

>  <energy_score>  (357) 
64.84701738938921

>  <distance_score>  (357) 
1.7060603767573814

>  <path>  (357) 
/opt/xchem-fragalysis-2/maxwin/BulkDock/SCRATCH/505735/C115-P129/C115-P129.minimised.mol

>  <scratch_subdir>  (357) 
/opt/xchem-fragalysis-2/maxwin/BulkDock/SCRATCH/505735/C115-P129

>  <fragmenstein_runtime>  (357) 
3.5121796131134033

>  <fragmenstein_outcome>  (357) 
too moved

>  <fragmenstein_mode>  (357) 
expansion

>  <fragmenstein_error>  (357) 


$$$$
C4047-P142
     RDKit          3D

 67 72  0  0  0  0  0  0  0  0999 V2000
   -1.9731   -3.6519   31.5305 O   0  0  0  0  0  0  0  0  0  0  0  0
   -0.9066   -3.5632   32.0825 C   0  0  0  0  0  0  0  0  0  0  0  0
   -0.5307   -4.6274   33.0730 C   0  0  0  0  0  0  0  0  0  0  0  0
   -0.6746   -5.9671   32.4682 C   0  0  0  0  0  0  0  0  0  0  0  0
   -0.0697   -7.0519   32.9551 C   0  0  0  0  0  0  0  0  0  0  0  0
    0.7871   -6.8920   34.0567 C   0  0  0  0  0  0  0  0  0  0  0  0
    1.7190   -7.6764   34.5448 N   0  0  0  0  0  0  0  0  0  0  0  0
    2.2818   -7.0332   35.6060 N   0  0  0  0  0  0  0  0  0  0  0  0
    1.6948   -5.8612   35.7246 C   0  0  0  0  0  0  0  0  0  0  0  0
    0.7474   -5.6845   34.7473 N   0  0  0  0  0  0  0  0  0  0  0  0
    0.0146   -4.5409   34.3139 C   0  0  0  0  0  0  0  0  0  0  0  0
   -0.0670   -3.3120   35.1017 N   0  0  0  0  0  0  0  0  0  0  0  0
   -0.7877   -2.0785   34.6721 C   0  0  0  0  0  0  0  0  0  0  0  0
   -1.0404   -1.2312   35.9169 C   0  0  0  0  0  0  0  0  0  0  0  0
   -1.5827   -2.2029   36.9529 C   0  0  0  0  0  0  0  0  0  0  0  0
   -1.6827   -1.7470   38.3899 C   0  0  0  0  0  0  0  0  0  0  0  0
   -1.2600   -0.4794   38.8196 C   0  0  0  0  0  0  0  0  0  0  0  0
   -1.3950   -0.0929   40.1567 C   0  0  0  0  0  0  0  0  0  0  0  0
   -1.9600   -0.9622   41.0851 C   0  0  0  0  0  0  0  0  0  0  0  0
   -2.3918   -2.2195   40.6777 C   0  0  0  0  0  0  0  0  0  0  0  0
   -2.2570   -2.6062   39.3433 C   0  0  0  0  0  0  0  0  0  0  0  0
   -0.4501   -3.5960   36.7983 S   0  0  0  0  0  0  0  0  0  0  0  0
   -1.1828   -4.8378   36.9054 O   0  0  0  0  0  0  0  0  0  0  0  0
    0.7725   -3.3467   37.5310 O   0  0  0  0  0  0  0  0  0  0  0  0
    0.1644   -2.6355   31.8937 N   0  0  0  0  0  0  0  0  0  0  0  0
    1.1500   -3.1717   30.8634 C   0  0  0  0  0  0  0  0  0  0  0  0
    0.6450   -3.6255   29.5051 C   0  0  0  0  0  0  0  0  0  0  0  0
    0.2670   -2.4031   28.7237 C   0  0  0  0  0  0  0  0  0  0  0  0
   -0.4854   -1.4508   29.6432 C   0  0  0  0  0  0  0  0  0  0  0  0
   -0.7682   -0.1656   28.8925 C   0  0  0  0  0  0  0  0  0  0  0  0
   -0.2351    1.0871   29.2023 C   0  0  0  0  0  0  0  0  0  0  0  0
   -0.6035    2.2206   28.4552 C   0  0  0  0  0  0  0  0  0  0  0  0
   -1.5003    2.1221   27.3842 C   0  0  0  0  0  0  0  0  0  0  0  0
   -2.0166    3.2961   26.5976 C   0  0  0  0  0  0  0  0  0  0  0  0
   -1.4409    4.5298   26.9984 O   0  0  0  0  0  0  0  0  0  0  0  0
   -1.9906    0.8626   27.0484 C   0  0  0  0  0  0  0  0  0  0  0  0
   -1.6371   -0.2565   27.7933 C   0  0  0  0  0  0  0  0  0  0  0  0
    0.2601   -1.3844   31.0103 C   0  0  0  0  0  0  0  0  0  0  0  0
   -1.3223   -6.0724   31.6044 H   0  0  0  0  0  0  0  0  0  0  0  0
   -0.2167   -8.0275   32.5110 H   0  0  0  0  0  0  0  0  0  0  0  0
    1.9682   -5.1110   36.4489 H   0  0  0  0  0  0  0  0  0  0  0  0
   -1.7458   -2.3199   34.2028 H   0  0  0  0  0  0  0  0  0  0  0  0
   -0.1640   -1.4886   33.9999 H   0  0  0  0  0  0  0  0  0  0  0  0
   -0.0895   -0.7892   36.2409 H   0  0  0  0  0  0  0  0  0  0  0  0
   -1.7382   -0.4129   35.7117 H   0  0  0  0  0  0  0  0  0  0  0  0
   -2.5681   -2.5559   36.6250 H   0  0  0  0  0  0  0  0  0  0  0  0
   -0.8111    0.2338   38.1338 H   0  0  0  0  0  0  0  0  0  0  0  0
   -1.0517    0.8884   40.4752 H   0  0  0  0  0  0  0  0  0  0  0  0
   -2.0577   -0.6639   42.1254 H   0  0  0  0  0  0  0  0  0  0  0  0
   -2.8287   -2.9093   41.3964 H   0  0  0  0  0  0  0  0  0  0  0  0
   -2.5998   -3.6019   39.0644 H   0  0  0  0  0  0  0  0  0  0  0  0
    1.4997   -4.1050   31.3336 H   0  0  0  0  0  0  0  0  0  0  0  0
    2.1018   -2.6144   30.8157 H   0  0  0  0  0  0  0  0  0  0  0  0
   -0.2130   -4.2988   29.6031 H   0  0  0  0  0  0  0  0  0  0  0  0
    1.4252   -4.1823   28.9741 H   0  0  0  0  0  0  0  0  0  0  0  0
   -0.3521   -2.7044   27.8813 H   0  0  0  0  0  0  0  0  0  0  0  0
    1.1681   -1.9219   28.3218 H   0  0  0  0  0  0  0  0  0  0  0  0
   -1.4739   -1.8826   29.8521 H   0  0  0  0  0  0  0  0  0  0  0  0
    0.4572    1.2211   30.0274 H   0  0  0  0  0  0  0  0  0  0  0  0
   -0.2062    3.1963   28.7322 H   0  0  0  0  0  0  0  0  0  0  0  0
   -1.7993    3.1561   25.5334 H   0  0  0  0  0  0  0  0  0  0  0  0
   -3.1012    3.3587   26.7344 H   0  0  0  0  0  0  0  0  0  0  0  0
   -2.0780    5.2081   26.6975 H   0  0  0  0  0  0  0  0  0  0  0  0
   -2.6828    0.7418   26.2180 H   0  0  0  0  0  0  0  0  0  0  0  0
   -2.0685   -1.2154   27.5026 H   0  0  0  0  0  0  0  0  0  0  0  0
    1.2534   -0.9074   30.9877 H   0  0  0  0  0  0  0  0  0  0  0  0
   -0.3258   -0.6679   31.6073 H   0  0  0  0  0  0  0  0  0  0  0  0
  1  2  2  0
  2  3  1  0
  3  4  1  0
  4  5  2  0
  5  6  1  0
  6  7  2  0
  7  8  1  0
  8  9  2  0
  9 10  1  0
 10 11  1  0
 11 12  1  0
 12 13  1  0
 13 14  1  0
 14 15  1  0
 15 16  1  0
 16 17  2  0
 17 18  1  0
 18 19  2  0
 19 20  1  0
 20 21  2  0
 15 22  1  0
 22 23  2  0
 22 24  2  0
  2 25  1  0
 25 26  1  0
 26 27  1  0
 27 28  1  0
 28 29  1  0
 29 30  1  0
 30 31  2  0
 31 32  1  0
 32 33  2  0
 33 34  1  0
 34 35  1  0
 33 36  1  0
 36 37  2  0
 29 38  1  0
 11  3  2  0
 22 12  1  0
 38 25  1  0
 10  6  1  0
 21 16  1  0
 37 30  1  0
  4 39  1  0
  5 40  1  0
  9 41  1  0
 13 42  1  0
 13 43  1  0
 14 44  1  0
 14 45  1  0
 15 46  1  0
 17 47  1  0
 18 48  1  0
 19 49  1  0
 20 50  1  0
 21 51  1  0
 26 52  1  0
 26 53  1  0
 27 54  1  0
 27 55  1  0
 28 56  1  0
 28 57  1  0
 29 58  1  0
 31 59  1  0
 32 60  1  0
 34 61  1  0
 34 62  1  0
 35 63  1  0
 36 64  1  0
 37 65  1  0
 38 66  1  0
 38 67  1  0
M  END
>  <Energy>  (358) 
176.87336270905868

>  <compound_id>  (358) 
4047

>  <target_id>  (358) 
1

>  <reference_id>  (358) 
142

>  <inspiration_ids>  (358) 
[142, 130]

>  <energy_score>  (358) 
12.884627502364765

>  <distance_score>  (358) 
2.2265405602801964

>  <path>  (358) 
/opt/xchem-fragalysis-2/maxwin/BulkDock/SCRATCH/505735/C4047-P142/C4047-P142.minimised.mol

>  <scratch_subdir>  (358) 
/opt/xchem-fragalysis-2/maxwin/BulkDock/SCRATCH/505735/C4047-P142

>  <fragmenstein_runtime>  (358) 
12.405776023864746

>  <fragmenstein_outcome>  (358) 
too moved

>  <fragmenstein_mode>  (358) 
expansion

>  <fragmenstein_error>  (358) 


$$$$
C4047-P130
     RDKit          3D

 67 72  0  0  0  0  0  0  0  0999 V2000
   -0.2135   -3.3540   29.1648 O   0  0  0  0  0  0  0  0  0  0  0  0
    0.2290   -3.1366   30.2616 C   0  0  0  0  0  0  0  0  0  0  0  0
    0.0973   -4.2562   31.2572 C   0  0  0  0  0  0  0  0  0  0  0  0
    0.3445   -5.5845   30.6684 C   0  0  0  0  0  0  0  0  0  0  0  0
    0.1840   -6.7240   31.3497 C   0  0  0  0  0  0  0  0  0  0  0  0
   -0.1784   -6.6536   32.7075 C   0  0  0  0  0  0  0  0  0  0  0  0
   -0.3207   -7.5947   33.6073 N   0  0  0  0  0  0  0  0  0  0  0  0
   -0.6832   -6.9979   34.7806 N   0  0  0  0  0  0  0  0  0  0  0  0
   -0.7508   -5.7052   34.5627 C   0  0  0  0  0  0  0  0  0  0  0  0
   -0.4245   -5.4021   33.2674 N   0  0  0  0  0  0  0  0  0  0  0  0
   -0.3229   -4.1872   32.5493 C   0  0  0  0  0  0  0  0  0  0  0  0
   -0.6239   -2.8767   33.0897 N   0  0  0  0  0  0  0  0  0  0  0  0
   -0.2855   -2.4458   34.4578 C   0  0  0  0  0  0  0  0  0  0  0  0
   -1.5984   -2.2170   35.2049 C   0  0  0  0  0  0  0  0  0  0  0  0
   -2.5462   -1.5063   34.2385 C   0  0  0  0  0  0  0  0  0  0  0  0
   -4.0152   -1.4629   34.6231 C   0  0  0  0  0  0  0  0  0  0  0  0
   -4.3531   -1.1403   35.9537 C   0  0  0  0  0  0  0  0  0  0  0  0
   -5.6836   -0.9939   36.3587 C   0  0  0  0  0  0  0  0  0  0  0  0
   -6.7127   -1.1581   35.4397 C   0  0  0  0  0  0  0  0  0  0  0  0
   -6.4079   -1.4695   34.1201 C   0  0  0  0  0  0  0  0  0  0  0  0
   -5.0752   -1.6116   33.7176 C   0  0  0  0  0  0  0  0  0  0  0  0
   -2.1467   -2.1854   32.6120 S   0  0  0  0  0  0  0  0  0  0  0  0
   -1.9155   -1.0402   31.7610 O   0  0  0  0  0  0  0  0  0  0  0  0
   -3.0064   -3.2599   32.1706 O   0  0  0  0  0  0  0  0  0  0  0  0
    0.7800   -1.9570   30.8147 N   0  0  0  0  0  0  0  0  0  0  0  0
    2.2990   -1.9258   30.5929 C   0  0  0  0  0  0  0  0  0  0  0  0
    2.8962   -1.9094   29.1628 C   0  0  0  0  0  0  0  0  0  0  0  0
    2.4859   -0.6443   28.4186 C   0  0  0  0  0  0  0  0  0  0  0  0
    1.0089   -0.5022   28.7138 C   0  0  0  0  0  0  0  0  0  0  0  0
    0.2459    0.6631   28.1492 C   0  0  0  0  0  0  0  0  0  0  0  0
    0.6883    1.9835   28.2107 C   0  0  0  0  0  0  0  0  0  0  0  0
   -0.1475    3.0162   27.7749 C   0  0  0  0  0  0  0  0  0  0  0  0
   -1.4255    2.7435   27.2654 C   0  0  0  0  0  0  0  0  0  0  0  0
   -2.3789    3.8435   26.9097 C   0  0  0  0  0  0  0  0  0  0  0  0
   -1.7567    4.8120   26.0773 O   0  0  0  0  0  0  0  0  0  0  0  0
   -1.8553    1.4208   27.1834 C   0  0  0  0  0  0  0  0  0  0  0  0
   -1.0336    0.3949   27.6278 C   0  0  0  0  0  0  0  0  0  0  0  0
    0.8877   -0.5694   30.2535 C   0  0  0  0  0  0  0  0  0  0  0  0
    0.6226   -5.6182   29.6180 H   0  0  0  0  0  0  0  0  0  0  0  0
    0.3244   -7.6930   30.8854 H   0  0  0  0  0  0  0  0  0  0  0  0
   -1.0306   -4.9833   35.3068 H   0  0  0  0  0  0  0  0  0  0  0  0
    0.2731   -1.5049   34.3846 H   0  0  0  0  0  0  0  0  0  0  0  0
    0.3567   -3.1583   34.9812 H   0  0  0  0  0  0  0  0  0  0  0  0
   -2.0324   -3.1609   35.5373 H   0  0  0  0  0  0  0  0  0  0  0  0
   -1.4186   -1.6237   36.1081 H   0  0  0  0  0  0  0  0  0  0  0  0
   -2.2187   -0.4578   34.1754 H   0  0  0  0  0  0  0  0  0  0  0  0
   -3.5786   -0.9781   36.7012 H   0  0  0  0  0  0  0  0  0  0  0  0
   -5.9108   -0.7390   37.3912 H   0  0  0  0  0  0  0  0  0  0  0  0
   -7.7480   -1.0357   35.7459 H   0  0  0  0  0  0  0  0  0  0  0  0
   -7.2067   -1.5972   33.3915 H   0  0  0  0  0  0  0  0  0  0  0  0
   -4.9052   -1.8451   32.6716 H   0  0  0  0  0  0  0  0  0  0  0  0
    2.6302   -2.8919   31.0072 H   0  0  0  0  0  0  0  0  0  0  0  0
    2.8036   -1.2149   31.2700 H   0  0  0  0  0  0  0  0  0  0  0  0
    2.5505   -2.7919   28.6103 H   0  0  0  0  0  0  0  0  0  0  0  0
    3.9887   -1.9737   29.2148 H   0  0  0  0  0  0  0  0  0  0  0  0
    2.6892   -0.7283   27.3469 H   0  0  0  0  0  0  0  0  0  0  0  0
    3.0551    0.2149   28.7928 H   0  0  0  0  0  0  0  0  0  0  0  0
    0.5434   -1.3841   28.2636 H   0  0  0  0  0  0  0  0  0  0  0  0
    1.6621    2.2318   28.6211 H   0  0  0  0  0  0  0  0  0  0  0  0
    0.1866    4.0493   27.8500 H   0  0  0  0  0  0  0  0  0  0  0  0
   -3.2542    3.4545   26.3790 H   0  0  0  0  0  0  0  0  0  0  0  0
   -2.7076    4.3328   27.8306 H   0  0  0  0  0  0  0  0  0  0  0  0
   -2.4640    5.4626   25.8943 H   0  0  0  0  0  0  0  0  0  0  0  0
   -2.8406    1.1807   26.7930 H   0  0  0  0  0  0  0  0  0  0  0  0
   -1.4073   -0.6293   27.5698 H   0  0  0  0  0  0  0  0  0  0  0  0
   -0.1151   -0.1811   30.4720 H   0  0  0  0  0  0  0  0  0  0  0  0
    1.5075    0.1491   30.8180 H   0  0  0  0  0  0  0  0  0  0  0  0
  1  2  2  0
  2  3  1  0
  3  4  1  0
  4  5  2  0
  5  6  1  0
  6  7  2  0
  7  8  1  0
  8  9  2  0
  9 10  1  0
 10 11  1  0
 11 12  1  0
 12 13  1  0
 13 14  1  0
 14 15  1  0
 15 16  1  0
 16 17  2  0
 17 18  1  0
 18 19  2  0
 19 20  1  0
 20 21  2  0
 15 22  1  0
 22 23  2  0
 22 24  2  0
  2 25  1  0
 25 26  1  0
 26 27  1  0
 27 28  1  0
 28 29  1  0
 29 30  1  0
 30 31  2  0
 31 32  1  0
 32 33  2  0
 33 34  1  0
 34 35  1  0
 33 36  1  0
 36 37  2  0
 29 38  1  0
 11  3  2  0
 22 12  1  0
 38 25  1  0
 10  6  1  0
 21 16  1  0
 37 30  1  0
  4 39  1  0
  5 40  1  0
  9 41  1  0
 13 42  1  0
 13 43  1  0
 14 44  1  0
 14 45  1  0
 15 46  1  0
 17 47  1  0
 18 48  1  0
 19 49  1  0
 20 50  1  0
 21 51  1  0
 26 52  1  0
 26 53  1  0
 27 54  1  0
 27 55  1  0
 28 56  1  0
 28 57  1  0
 29 58  1  0
 31 59  1  0
 32 60  1  0
 34 61  1  0
 34 62  1  0
 35 63  1  0
 36 64  1  0
 37 65  1  0
 38 66  1  0
 38 67  1  0
M  END
>  <Energy>  (359) 
184.58680606254742

>  <compound_id>  (359) 
4047

>  <target_id>  (359) 
1

>  <reference_id>  (359) 
130

>  <inspiration_ids>  (359) 
[142, 130]

>  <energy_score>  (359) 
20.598070855856463

>  <distance_score>  (359) 
2.10939164292454

>  <path>  (359) 
/opt/xchem-fragalysis-2/maxwin/BulkDock/SCRATCH/505735/C4047-P130/C4047-P130.minimised.mol

>  <scratch_subdir>  (359) 
/opt/xchem-fragalysis-2/maxwin/BulkDock/SCRATCH/505735/C4047-P130

>  <fragmenstein_runtime>  (359) 
13.097458600997925

>  <fragmenstein_outcome>  (359) 
too moved

>  <fragmenstein_mode>  (359) 
expansion

>  <fragmenstein_error>  (359) 


$$$$
C4072-P142
     RDKit          3D

 67 72  0  0  0  0  0  0  0  0999 V2000
    1.7856   -3.9813   29.6236 O   0  0  0  0  0  0  0  0  0  0  0  0
    1.1301   -3.9962   30.5990 C   0  0  0  0  0  0  0  0  0  0  0  0
    1.0032   -5.1873   31.4652 C   0  0  0  0  0  0  0  0  0  0  0  0
    1.2861   -5.2847   32.8865 C   0  0  0  0  0  0  0  0  0  0  0  0
    0.5881   -6.1751   33.6156 C   0  0  0  0  0  0  0  0  0  0  0  0
    0.9718   -6.2000   34.9937 N   0  0  0  0  0  0  0  0  0  0  0  0
    1.2257   -7.4575   35.7217 C   0  0  0  0  0  0  0  0  0  0  0  0
    1.6006   -6.9896   37.1302 C   0  0  0  0  0  0  0  0  0  0  0  0
    0.4822   -6.0277   37.5469 C   0  0  0  0  0  0  0  0  0  0  0  0
    0.7711   -5.0051   38.6135 C   0  0  0  0  0  0  0  0  0  0  0  0
   -0.2105   -4.7387   39.5844 C   0  0  0  0  0  0  0  0  0  0  0  0
    0.0152   -3.7998   40.5923 C   0  0  0  0  0  0  0  0  0  0  0  0
    1.2218   -3.1083   40.6433 C   0  0  0  0  0  0  0  0  0  0  0  0
    2.1997   -3.3506   39.6823 C   0  0  0  0  0  0  0  0  0  0  0  0
    1.9764   -4.2899   38.6726 C   0  0  0  0  0  0  0  0  0  0  0  0
   -0.0577   -5.2347   36.0131 S   0  0  0  0  0  0  0  0  0  0  0  0
    0.3810   -3.8655   35.8656 O   0  0  0  0  0  0  0  0  0  0  0  0
   -1.4147   -5.6667   35.7654 O   0  0  0  0  0  0  0  0  0  0  0  0
   -0.3414   -6.9927   32.9640 N   0  0  0  0  0  0  0  0  0  0  0  0
   -1.2834   -7.8641   33.4044 C   0  0  0  0  0  0  0  0  0  0  0  0
   -1.8608   -8.4590   32.3834 N   0  0  0  0  0  0  0  0  0  0  0  0
   -1.3581   -7.9391   31.2295 N   0  0  0  0  0  0  0  0  0  0  0  0
   -0.4890   -7.0260   31.5833 C   0  0  0  0  0  0  0  0  0  0  0  0
    0.1945   -6.0581   30.8309 C   0  0  0  0  0  0  0  0  0  0  0  0
    0.2054   -2.9454   31.1739 N   0  0  0  0  0  0  0  0  0  0  0  0
    0.9548   -2.0093   32.1287 C   0  0  0  0  0  0  0  0  0  0  0  0
    2.2387   -1.3617   31.5614 C   0  0  0  0  0  0  0  0  0  0  0  0
    1.8716   -0.3503   30.4919 C   0  0  0  0  0  0  0  0  0  0  0  0
    0.7289   -0.9124   29.6547 C   0  0  0  0  0  0  0  0  0  0  0  0
   -0.0719    0.0743   28.8296 C   0  0  0  0  0  0  0  0  0  0  0  0
    0.0115    1.4592   28.9762 C   0  0  0  0  0  0  0  0  0  0  0  0
   -0.8041    2.3053   28.2207 C   0  0  0  0  0  0  0  0  0  0  0  0
   -1.7059    1.7951   27.2823 C   0  0  0  0  0  0  0  0  0  0  0  0
   -2.6088    2.6903   26.4809 C   0  0  0  0  0  0  0  0  0  0  0  0
   -2.0276    3.9817   26.3464 O   0  0  0  0  0  0  0  0  0  0  0  0
   -1.7907    0.4128   27.1341 C   0  0  0  0  0  0  0  0  0  0  0  0
   -0.9878   -0.4334   27.8953 C   0  0  0  0  0  0  0  0  0  0  0  0
   -0.2260   -1.6264   30.6261 C   0  0  0  0  0  0  0  0  0  0  0  0
    2.0456   -4.6446   33.3194 H   0  0  0  0  0  0  0  0  0  0  0  0
    0.3347   -8.0880   35.7440 H   0  0  0  0  0  0  0  0  0  0  0  0
    2.0565   -8.0020   35.2643 H   0  0  0  0  0  0  0  0  0  0  0  0
    1.6885   -7.8291   37.8277 H   0  0  0  0  0  0  0  0  0  0  0  0
    2.5763   -6.4928   37.0919 H   0  0  0  0  0  0  0  0  0  0  0  0
   -0.3669   -6.6488   37.8607 H   0  0  0  0  0  0  0  0  0  0  0  0
   -1.1696   -5.2563   39.5660 H   0  0  0  0  0  0  0  0  0  0  0  0
   -0.7560   -3.6061   41.3339 H   0  0  0  0  0  0  0  0  0  0  0  0
    1.3956   -2.3741   41.4255 H   0  0  0  0  0  0  0  0  0  0  0  0
    3.1362   -2.7992   39.7124 H   0  0  0  0  0  0  0  0  0  0  0  0
    2.7527   -4.4312   37.9248 H   0  0  0  0  0  0  0  0  0  0  0  0
   -1.5165   -8.0330   34.4449 H   0  0  0  0  0  0  0  0  0  0  0  0
   -0.1052   -5.9272   29.7970 H   0  0  0  0  0  0  0  0  0  0  0  0
    1.3253   -2.6757   32.9143 H   0  0  0  0  0  0  0  0  0  0  0  0
    0.3293   -1.3280   32.7321 H   0  0  0  0  0  0  0  0  0  0  0  0
    2.9103   -2.1206   31.1466 H   0  0  0  0  0  0  0  0  0  0  0  0
    2.7903   -0.8650   32.3680 H   0  0  0  0  0  0  0  0  0  0  0  0
    1.5666    0.5627   31.0159 H   0  0  0  0  0  0  0  0  0  0  0  0
    2.7363   -0.0886   29.8724 H   0  0  0  0  0  0  0  0  0  0  0  0
    1.1589   -1.6360   28.9505 H   0  0  0  0  0  0  0  0  0  0  0  0
    0.6986    1.9273   29.6729 H   0  0  0  0  0  0  0  0  0  0  0  0
   -0.7281    3.3824   28.3652 H   0  0  0  0  0  0  0  0  0  0  0  0
   -2.7543    2.2905   25.4733 H   0  0  0  0  0  0  0  0  0  0  0  0
   -3.5796    2.7741   26.9745 H   0  0  0  0  0  0  0  0  0  0  0  0
   -2.7682    4.6192   26.2961 H   0  0  0  0  0  0  0  0  0  0  0  0
   -2.4675   -0.0284   26.4068 H   0  0  0  0  0  0  0  0  0  0  0  0
   -1.0846   -1.5070   27.7353 H   0  0  0  0  0  0  0  0  0  0  0  0
   -1.0528   -1.9924   29.9959 H   0  0  0  0  0  0  0  0  0  0  0  0
   -0.8050   -0.9623   31.2949 H   0  0  0  0  0  0  0  0  0  0  0  0
  1  2  2  0
  2  3  1  0
  3  4  1  0
  4  5  2  0
  5  6  1  0
  6  7  1  0
  7  8  1  0
  8  9  1  0
  9 10  1  0
 10 11  2  0
 11 12  1  0
 12 13  2  0
 13 14  1  0
 14 15  2  0
  9 16  1  0
 16 17  2  0
 16 18  2  0
  5 19  1  0
 19 20  1  0
 20 21  2  0
 21 22  1  0
 22 23  2  0
 23 24  1  0
  2 25  1  0
 25 26  1  0
 26 27  1  0
 27 28  1  0
 28 29  1  0
 29 30  1  0
 30 31  2  0
 31 32  1  0
 32 33  2  0
 33 34  1  0
 34 35  1  0
 33 36  1  0
 36 37  2  0
 29 38  1  0
 24  3  2  0
 38 25  1  0
 16  6  1  0
 23 19  1  0
 37 30  1  0
 15 10  1  0
  4 39  1  0
  7 40  1  0
  7 41  1  0
  8 42  1  0
  8 43  1  0
  9 44  1  0
 11 45  1  0
 12 46  1  0
 13 47  1  0
 14 48  1  0
 15 49  1  0
 20 50  1  0
 24 51  1  0
 26 52  1  0
 26 53  1  0
 27 54  1  0
 27 55  1  0
 28 56  1  0
 28 57  1  0
 29 58  1  0
 31 59  1  0
 32 60  1  0
 34 61  1  0
 34 62  1  0
 35 63  1  0
 36 64  1  0
 37 65  1  0
 38 66  1  0
 38 67  1  0
M  END
>  <Energy>  (360) 
178.64792376445089

>  <compound_id>  (360) 
4072

>  <target_id>  (360) 
1

>  <reference_id>  (360) 
142

>  <inspiration_ids>  (360) 
[142, 131]

>  <energy_score>  (360) 
41.82861406302192

>  <distance_score>  (360) 
1.4245000932543903

>  <path>  (360) 
/opt/xchem-fragalysis-2/maxwin/BulkDock/SCRATCH/505735/C4072-P142/C4072-P142.minimised.mol

>  <scratch_subdir>  (360) 
/opt/xchem-fragalysis-2/maxwin/BulkDock/SCRATCH/505735/C4072-P142

>  <fragmenstein_runtime>  (360) 
8.217456817626953

>  <fragmenstein_outcome>  (360) 
too moved

>  <fragmenstein_mode>  (360) 
expansion

>  <fragmenstein_error>  (360) 


$$$$
C4072-P131
     RDKit          3D

 67 72  0  0  0  0  0  0  0  0999 V2000
    1.8475   -4.0012   29.6641 O   0  0  0  0  0  0  0  0  0  0  0  0
    1.1682   -4.0445   30.6220 C   0  0  0  0  0  0  0  0  0  0  0  0
    1.0382   -5.2544   31.4666 C   0  0  0  0  0  0  0  0  0  0  0  0
    1.3130   -5.3683   32.8887 C   0  0  0  0  0  0  0  0  0  0  0  0
    0.6184   -6.2735   33.6031 C   0  0  0  0  0  0  0  0  0  0  0  0
    1.0050   -6.3229   34.9807 N   0  0  0  0  0  0  0  0  0  0  0  0
    1.2341   -7.5915   35.6965 C   0  0  0  0  0  0  0  0  0  0  0  0
    1.6259   -7.1430   37.1073 C   0  0  0  0  0  0  0  0  0  0  0  0
    0.5303   -6.1617   37.5381 C   0  0  0  0  0  0  0  0  0  0  0  0
    0.8395   -5.1545   38.6141 C   0  0  0  0  0  0  0  0  0  0  0  0
   -0.1535   -4.8462   39.5610 C   0  0  0  0  0  0  0  0  0  0  0  0
    0.0878   -3.9203   40.5774 C   0  0  0  0  0  0  0  0  0  0  0  0
    1.3220   -3.2831   40.6609 C   0  0  0  0  0  0  0  0  0  0  0  0
    2.3121   -3.5665   39.7238 C   0  0  0  0  0  0  0  0  0  0  0  0
    2.0730   -4.4929   38.7053 C   0  0  0  0  0  0  0  0  0  0  0  0
    0.0037   -5.3432   36.0131 S   0  0  0  0  0  0  0  0  0  0  0  0
    0.4732   -3.9831   35.8775 O   0  0  0  0  0  0  0  0  0  0  0  0
   -1.3626   -5.7435   35.7665 O   0  0  0  0  0  0  0  0  0  0  0  0
   -0.3070   -7.0849   32.9370 N   0  0  0  0  0  0  0  0  0  0  0  0
   -1.2599   -7.9533   33.3645 C   0  0  0  0  0  0  0  0  0  0  0  0
   -1.8311   -8.5427   32.3365 N   0  0  0  0  0  0  0  0  0  0  0  0
   -1.3132   -8.0164   31.1896 N   0  0  0  0  0  0  0  0  0  0  0  0
   -0.4423   -7.1075   31.5545 C   0  0  0  0  0  0  0  0  0  0  0  0
    0.2494   -6.1317   30.8153 C   0  0  0  0  0  0  0  0  0  0  0  0
    0.2108   -3.0183   31.1922 N   0  0  0  0  0  0  0  0  0  0  0  0
    0.9201   -2.0875   32.1818 C   0  0  0  0  0  0  0  0  0  0  0  0
    2.2051   -1.4038   31.6613 C   0  0  0  0  0  0  0  0  0  0  0  0
    1.8438   -0.3683   30.6138 C   0  0  0  0  0  0  0  0  0  0  0  0
    0.7371   -0.9308   29.7318 C   0  0  0  0  0  0  0  0  0  0  0  0
   -0.0561    0.0662   28.9092 C   0  0  0  0  0  0  0  0  0  0  0  0
    0.0100    1.4512   29.0704 C   0  0  0  0  0  0  0  0  0  0  0  0
   -0.7986    2.3010   28.3056 C   0  0  0  0  0  0  0  0  0  0  0  0
   -1.6758    1.7939   27.3436 C   0  0  0  0  0  0  0  0  0  0  0  0
   -2.5807    2.6750   26.5269 C   0  0  0  0  0  0  0  0  0  0  0  0
   -2.0947    4.0115   26.4903 O   0  0  0  0  0  0  0  0  0  0  0  0
   -1.7323    0.4131   27.1760 C   0  0  0  0  0  0  0  0  0  0  0  0
   -0.9423   -0.4353   27.9470 C   0  0  0  0  0  0  0  0  0  0  0  0
   -0.2294   -1.6948   30.6559 C   0  0  0  0  0  0  0  0  0  0  0  0
    2.0700   -4.7313   33.3307 H   0  0  0  0  0  0  0  0  0  0  0  0
    0.3306   -8.2038   35.7178 H   0  0  0  0  0  0  0  0  0  0  0  0
    2.0516   -8.1501   35.2326 H   0  0  0  0  0  0  0  0  0  0  0  0
    1.7006   -7.9898   37.7974 H   0  0  0  0  0  0  0  0  0  0  0  0
    2.6113   -6.6665   37.0660 H   0  0  0  0  0  0  0  0  0  0  0  0
   -0.3304   -6.7684   37.8490 H   0  0  0  0  0  0  0  0  0  0  0  0
   -1.1346   -5.3197   39.5164 H   0  0  0  0  0  0  0  0  0  0  0  0
   -0.6931   -3.6941   41.2994 H   0  0  0  0  0  0  0  0  0  0  0  0
    1.5081   -2.5583   41.4491 H   0  0  0  0  0  0  0  0  0  0  0  0
    3.2709   -3.0567   39.7793 H   0  0  0  0  0  0  0  0  0  0  0  0
    2.8613   -4.6658   37.9772 H   0  0  0  0  0  0  0  0  0  0  0  0
   -1.5063   -8.1199   34.4022 H   0  0  0  0  0  0  0  0  0  0  0  0
   -0.0298   -5.9990   29.7761 H   0  0  0  0  0  0  0  0  0  0  0  0
    1.2831   -2.7627   32.9636 H   0  0  0  0  0  0  0  0  0  0  0  0
    0.2664   -1.4298   32.7817 H   0  0  0  0  0  0  0  0  0  0  0  0
    2.8982   -2.1396   31.2403 H   0  0  0  0  0  0  0  0  0  0  0  0
    2.7304   -0.9209   32.4935 H   0  0  0  0  0  0  0  0  0  0  0  0
    1.5036    0.5226   31.1546 H   0  0  0  0  0  0  0  0  0  0  0  0
    2.7183   -0.0699   30.0254 H   0  0  0  0  0  0  0  0  0  0  0  0
    1.2019   -1.6272   29.0219 H   0  0  0  0  0  0  0  0  0  0  0  0
    0.6783    1.9164   29.7874 H   0  0  0  0  0  0  0  0  0  0  0  0
   -0.7375    3.3769   28.4654 H   0  0  0  0  0  0  0  0  0  0  0  0
   -2.6251    2.3171   25.4941 H   0  0  0  0  0  0  0  0  0  0  0  0
   -3.5886    2.6694   26.9501 H   0  0  0  0  0  0  0  0  0  0  0  0
   -2.8435    4.5694   26.2130 H   0  0  0  0  0  0  0  0  0  0  0  0
   -2.3717   -0.0295   26.4183 H   0  0  0  0  0  0  0  0  0  0  0  0
   -1.0227   -1.5068   27.7694 H   0  0  0  0  0  0  0  0  0  0  0  0
   -1.0262   -2.0644   29.9905 H   0  0  0  0  0  0  0  0  0  0  0  0
   -0.8440   -1.0609   31.3221 H   0  0  0  0  0  0  0  0  0  0  0  0
  1  2  2  0
  2  3  1  0
  3  4  1  0
  4  5  2  0
  5  6  1  0
  6  7  1  0
  7  8  1  0
  8  9  1  0
  9 10  1  0
 10 11  2  0
 11 12  1  0
 12 13  2  0
 13 14  1  0
 14 15  2  0
  9 16  1  0
 16 17  2  0
 16 18  2  0
  5 19  1  0
 19 20  1  0
 20 21  2  0
 21 22  1  0
 22 23  2  0
 23 24  1  0
  2 25  1  0
 25 26  1  0
 26 27  1  0
 27 28  1  0
 28 29  1  0
 29 30  1  0
 30 31  2  0
 31 32  1  0
 32 33  2  0
 33 34  1  0
 34 35  1  0
 33 36  1  0
 36 37  2  0
 29 38  1  0
 24  3  2  0
 38 25  1  0
 16  6  1  0
 23 19  1  0
 37 30  1  0
 15 10  1  0
  4 39  1  0
  7 40  1  0
  7 41  1  0
  8 42  1  0
  8 43  1  0
  9 44  1  0
 11 45  1  0
 12 46  1  0
 13 47  1  0
 14 48  1  0
 15 49  1  0
 20 50  1  0
 24 51  1  0
 26 52  1  0
 26 53  1  0
 27 54  1  0
 27 55  1  0
 28 56  1  0
 28 57  1  0
 29 58  1  0
 31 59  1  0
 32 60  1  0
 34 61  1  0
 34 62  1  0
 35 63  1  0
 36 64  1  0
 37 65  1  0
 38 66  1  0
 38 67  1  0
M  END
>  <Energy>  (361) 
177.78367383017542

>  <compound_id>  (361) 
4072

>  <target_id>  (361) 
1

>  <reference_id>  (361) 
131

>  <inspiration_ids>  (361) 
[142, 131]

>  <energy_score>  (361) 
40.96436412875039

>  <distance_score>  (361) 
1.4262538287497613

>  <path>  (361) 
/opt/xchem-fragalysis-2/maxwin/BulkDock/SCRATCH/505735/C4072-P131/C4072-P131.minimised.mol

>  <scratch_subdir>  (361) 
/opt/xchem-fragalysis-2/maxwin/BulkDock/SCRATCH/505735/C4072-P131

>  <fragmenstein_runtime>  (361) 
8.468422174453735

>  <fragmenstein_outcome>  (361) 
too moved

>  <fragmenstein_mode>  (361) 
expansion

>  <fragmenstein_error>  (361) 


$$$$
C4074-P142
     RDKit          3D

 70 76  0  0  0  0  0  0  0  0999 V2000
    2.4446   -5.4815   29.6926 O   0  0  0  0  0  0  0  0  0  0  0  0
    2.2160   -4.4164   30.2485 C   0  0  0  0  0  0  0  0  0  0  0  0
    1.6212   -3.2347   29.5332 C   0  0  0  0  0  0  0  0  0  0  0  0
    1.7947   -2.0977   30.5615 C   0  0  0  0  0  0  0  0  0  0  0  0
    3.2053   -1.4538   30.4632 C   0  0  0  0  0  0  0  0  0  0  0  0
    3.4824   -0.7627   29.1318 C   0  0  0  0  0  0  0  0  0  0  0  0
    2.2248   -0.2283   28.4659 C   0  0  0  0  0  0  0  0  0  0  0  0
    1.1565    0.1663   29.4905 C   0  0  0  0  0  0  0  0  0  0  0  0
    0.0184    0.8387   28.7601 C   0  0  0  0  0  0  0  0  0  0  0  0
   -0.0863    2.2336   28.8013 C   0  0  0  0  0  0  0  0  0  0  0  0
   -1.0085    2.8970   27.9962 C   0  0  0  0  0  0  0  0  0  0  0  0
   -1.8281    2.1838   27.1161 C   0  0  0  0  0  0  0  0  0  0  0  0
   -2.7859    2.8908   26.2017 C   0  0  0  0  0  0  0  0  0  0  0  0
   -2.2414    4.1410   25.7931 O   0  0  0  0  0  0  0  0  0  0  0  0
   -1.7651    0.7877   27.1196 C   0  0  0  0  0  0  0  0  0  0  0  0
   -0.8493    0.1197   27.9296 C   0  0  0  0  0  0  0  0  0  0  0  0
    0.7187   -1.0044   30.3951 C   0  0  0  0  0  0  0  0  0  0  0  0
    1.6818   -2.8477   31.9094 C   0  0  0  0  0  0  0  0  0  0  0  0
    0.2912   -3.3497   32.3515 C   0  0  0  0  0  0  0  0  0  0  0  0
    0.4498   -4.8359   32.7551 C   0  0  0  0  0  0  0  0  0  0  0  0
   -0.2845   -5.7813   31.7896 C   0  0  0  0  0  0  0  0  0  0  0  0
   -0.3704   -7.0237   32.5480 N   0  0  0  0  0  0  0  0  0  0  0  0
   -0.6233   -6.6336   33.9126 N   0  0  0  0  0  0  0  0  0  0  0  0
   -0.3051   -5.2070   34.0276 C   0  0  0  0  0  0  0  0  0  0  0  0
    1.9793   -5.1066   32.7436 C   0  0  0  0  0  0  0  0  0  0  0  0
    2.9450   -4.6382   34.2486 S   0  0  0  0  0  0  0  0  0  0  0  0
    2.6411   -5.9470   35.3228 C   0  0  0  0  0  0  0  0  0  0  0  0
    2.4185   -7.1940   34.9696 N   0  0  0  0  0  0  0  0  0  0  0  0
    2.0712   -7.8554   36.1259 N   0  0  0  0  0  0  0  0  0  0  0  0
    2.1303   -6.9753   37.1081 C   0  0  0  0  0  0  0  0  0  0  0  0
    1.7661   -7.2395   38.4558 C   0  0  0  0  0  0  0  0  0  0  0  0
    2.0979   -6.5788   39.6213 C   0  0  0  0  0  0  0  0  0  0  0  0
    1.4464   -7.2446   40.6892 C   0  0  0  0  0  0  0  0  0  0  0  0
    0.7210   -8.2797   40.1434 C   0  0  0  0  0  0  0  0  0  0  0  0
    0.9139   -8.2616   38.7847 N   0  0  0  0  0  0  0  0  0  0  0  0
    2.5375   -5.7484   36.6680 O   0  0  0  0  0  0  0  0  0  0  0  0
    2.5033   -4.1253   31.7025 C   0  0  0  0  0  0  0  0  0  0  0  0
    2.1533   -3.0731   28.5943 H   0  0  0  0  0  0  0  0  0  0  0  0
    0.5693   -3.4578   29.3276 H   0  0  0  0  0  0  0  0  0  0  0  0
    3.3034   -0.7100   31.2665 H   0  0  0  0  0  0  0  0  0  0  0  0
    4.0102   -2.1756   30.6361 H   0  0  0  0  0  0  0  0  0  0  0  0
    3.9850   -1.4534   28.4440 H   0  0  0  0  0  0  0  0  0  0  0  0
    4.1894    0.0581   29.3038 H   0  0  0  0  0  0  0  0  0  0  0  0
    2.4978    0.6272   27.8340 H   0  0  0  0  0  0  0  0  0  0  0  0
    1.8269   -0.9828   27.7770 H   0  0  0  0  0  0  0  0  0  0  0  0
    1.6144    0.9117   30.1579 H   0  0  0  0  0  0  0  0  0  0  0  0
    0.5740    2.8264   29.4296 H   0  0  0  0  0  0  0  0  0  0  0  0
   -1.0616    3.9833   28.0315 H   0  0  0  0  0  0  0  0  0  0  0  0
   -3.7441    3.0327   26.7042 H   0  0  0  0  0  0  0  0  0  0  0  0
   -2.9490    2.3051   25.2949 H   0  0  0  0  0  0  0  0  0  0  0  0
   -2.8945    4.8243   26.0490 H   0  0  0  0  0  0  0  0  0  0  0  0
   -2.3966    0.2025   26.4536 H   0  0  0  0  0  0  0  0  0  0  0  0
   -0.7881   -0.9636   27.8458 H   0  0  0  0  0  0  0  0  0  0  0  0
    0.4733   -0.5778   31.3781 H   0  0  0  0  0  0  0  0  0  0  0  0
   -0.2175   -1.4552   30.0469 H   0  0  0  0  0  0  0  0  0  0  0  0
    2.0999   -2.2342   32.7180 H   0  0  0  0  0  0  0  0  0  0  0  0
   -0.4627   -3.2302   31.5669 H   0  0  0  0  0  0  0  0  0  0  0  0
   -0.0443   -2.7439   33.2021 H   0  0  0  0  0  0  0  0  0  0  0  0
   -1.2896   -5.4069   31.5702 H   0  0  0  0  0  0  0  0  0  0  0  0
    0.2203   -5.9521   30.8391 H   0  0  0  0  0  0  0  0  0  0  0  0
   -1.1260   -7.6200   32.1959 H   0  0  0  0  0  0  0  0  0  0  0  0
   -0.0676   -7.1930   34.5723 H   0  0  0  0  0  0  0  0  0  0  0  0
    0.2059   -4.9726   34.9619 H   0  0  0  0  0  0  0  0  0  0  0  0
   -1.2429   -4.6502   34.0648 H   0  0  0  0  0  0  0  0  0  0  0  0
    2.2124   -6.1379   32.4781 H   0  0  0  0  0  0  0  0  0  0  0  0
    2.7426   -5.7122   39.6970 H   0  0  0  0  0  0  0  0  0  0  0  0
    1.4939   -6.9896   41.7401 H   0  0  0  0  0  0  0  0  0  0  0  0
    0.0764   -9.0199   40.5970 H   0  0  0  0  0  0  0  0  0  0  0  0
    0.4775   -8.8826   38.1078 H   0  0  0  0  0  0  0  0  0  0  0  0
    3.5845   -3.9544   31.7664 H   0  0  0  0  0  0  0  0  0  0  0  0
  1  2  2  0
  2  3  1  0
  3  4  1  0
  4  5  1  0
  5  6  1  0
  6  7  1  0
  7  8  1  0
  8  9  1  0
  9 10  2  0
 10 11  1  0
 11 12  2  0
 12 13  1  0
 13 14  1  0
 12 15  1  0
 15 16  2  0
  8 17  1  0
  4 18  1  0
 18 19  1  0
 19 20  1  0
 20 21  1  0
 21 22  1  0
 22 23  1  0
 23 24  1  0
 20 25  1  0
 25 26  1  0
 26 27  1  0
 27 28  2  0
 28 29  1  0
 29 30  2  0
 30 31  1  0
 31 32  2  0
 32 33  1  0
 33 34  2  0
 34 35  1  0
 30 36  1  0
 25 37  1  0
 37  2  1  0
 17  4  1  0
 37 18  1  0
 16  9  1  0
 24 20  1  0
 36 27  1  0
 35 31  1  0
  3 38  1  0
  3 39  1  0
  5 40  1  0
  5 41  1  0
  6 42  1  0
  6 43  1  0
  7 44  1  0
  7 45  1  0
  8 46  1  0
 10 47  1  0
 11 48  1  0
 13 49  1  0
 13 50  1  0
 14 51  1  0
 15 52  1  0
 16 53  1  0
 17 54  1  0
 17 55  1  0
 18 56  1  0
 19 57  1  0
 19 58  1  0
 21 59  1  0
 21 60  1  0
 22 61  1  0
 23 62  1  0
 24 63  1  0
 24 64  1  0
 25 65  1  0
 32 66  1  0
 33 67  1  0
 34 68  1  0
 35 69  1  0
 37 70  1  0
M  END
>  <Energy>  (362) 
120.46040597992449

>  <compound_id>  (362) 
4074

>  <target_id>  (362) 
1

>  <reference_id>  (362) 
142

>  <inspiration_ids>  (362) 
[142, 133]

>  <energy_score>  (362) 
-74.96157009852334

>  <distance_score>  (362) 
3.0960298544562277

>  <path>  (362) 
/opt/xchem-fragalysis-2/maxwin/BulkDock/SCRATCH/505735/C4074-P142/C4074-P142.minimised.mol

>  <scratch_subdir>  (362) 
/opt/xchem-fragalysis-2/maxwin/BulkDock/SCRATCH/505735/C4074-P142

>  <fragmenstein_runtime>  (362) 
23.05587649345398

>  <fragmenstein_outcome>  (362) 
too moved

>  <fragmenstein_mode>  (362) 
expansion

>  <fragmenstein_error>  (362) 


$$$$
C4074-P133
     RDKit          3D

 70 76  0  0  0  0  0  0  0  0999 V2000
   -1.0359   -1.8777   33.2926 O   0  0  0  0  0  0  0  0  0  0  0  0
    0.0129   -2.4919   33.3026 C   0  0  0  0  0  0  0  0  0  0  0  0
    1.3553   -1.8349   33.4684 C   0  0  0  0  0  0  0  0  0  0  0  0
    2.0576   -2.6117   32.3285 C   0  0  0  0  0  0  0  0  0  0  0  0
    3.5593   -2.3180   32.2868 C   0  0  0  0  0  0  0  0  0  0  0  0
    4.0421   -1.6228   30.9932 C   0  0  0  0  0  0  0  0  0  0  0  0
    3.1816   -0.4487   30.4647 C   0  0  0  0  0  0  0  0  0  0  0  0
    1.6752   -0.6138   30.6486 C   0  0  0  0  0  0  0  0  0  0  0  0
    0.7758   -0.0102   29.5520 C   0  0  0  0  0  0  0  0  0  0  0  0
    0.6712    1.3882   29.4765 C   0  0  0  0  0  0  0  0  0  0  0  0
   -0.2324    2.0197   28.6057 C   0  0  0  0  0  0  0  0  0  0  0  0
   -1.0607    1.2775   27.7592 C   0  0  0  0  0  0  0  0  0  0  0  0
   -2.0510    1.9531   26.8385 C   0  0  0  0  0  0  0  0  0  0  0  0
   -1.4593    3.0484   26.1462 O   0  0  0  0  0  0  0  0  0  0  0  0
   -0.9719   -0.1138   27.8271 C   0  0  0  0  0  0  0  0  0  0  0  0
   -0.0594   -0.7441   28.6950 C   0  0  0  0  0  0  0  0  0  0  0  0
    1.4166   -2.0748   31.0024 C   0  0  0  0  0  0  0  0  0  0  0  0
    1.6639   -4.0844   32.8750 C   0  0  0  0  0  0  0  0  0  0  0  0
    1.8150   -5.4739   32.1994 C   0  0  0  0  0  0  0  0  0  0  0  0
    0.3661   -6.1118   32.1454 C   0  0  0  0  0  0  0  0  0  0  0  0
    0.0658   -6.8878   33.4575 C   0  0  0  0  0  0  0  0  0  0  0  0
   -1.1813   -7.5925   33.2029 N   0  0  0  0  0  0  0  0  0  0  0  0
   -1.1875   -7.9455   31.8146 N   0  0  0  0  0  0  0  0  0  0  0  0
   -0.0787   -7.2171   31.1763 C   0  0  0  0  0  0  0  0  0  0  0  0
   -0.4668   -4.8315   31.9915 C   0  0  0  0  0  0  0  0  0  0  0  0
   -0.5804   -4.2424   30.2284 S   0  0  0  0  0  0  0  0  0  0  0  0
    0.8358   -4.7125   29.3051 C   0  0  0  0  0  0  0  0  0  0  0  0
    1.4649   -5.8720   29.3399 N   0  0  0  0  0  0  0  0  0  0  0  0
    2.6213   -5.7476   28.5985 N   0  0  0  0  0  0  0  0  0  0  0  0
    2.6189   -4.5198   28.1213 C   0  0  0  0  0  0  0  0  0  0  0  0
    3.7072   -3.9205   27.4277 C   0  0  0  0  0  0  0  0  0  0  0  0
    4.8609   -4.4807   26.9172 C   0  0  0  0  0  0  0  0  0  0  0  0
    5.6353   -3.4331   26.3606 C   0  0  0  0  0  0  0  0  0  0  0  0
    4.9388   -2.2615   26.5536 C   0  0  0  0  0  0  0  0  0  0  0  0
    3.7695   -2.5657   27.2018 N   0  0  0  0  0  0  0  0  0  0  0  0
    1.4680   -3.8490   28.4427 O   0  0  0  0  0  0  0  0  0  0  0  0
    0.1602   -3.9667   33.0985 C   0  0  0  0  0  0  0  0  0  0  0  0
    1.7575   -2.0528   34.4638 H   0  0  0  0  0  0  0  0  0  0  0  0
    1.2921   -0.7543   33.3532 H   0  0  0  0  0  0  0  0  0  0  0  0
    3.8445   -1.6860   33.1371 H   0  0  0  0  0  0  0  0  0  0  0  0
    4.1264   -3.2504   32.3983 H   0  0  0  0  0  0  0  0  0  0  0  0
    5.0725   -1.2746   31.1346 H   0  0  0  0  0  0  0  0  0  0  0  0
    4.0992   -2.3855   30.2063 H   0  0  0  0  0  0  0  0  0  0  0  0
    3.4984    0.4708   30.9744 H   0  0  0  0  0  0  0  0  0  0  0  0
    3.4282   -0.2970   29.4063 H   0  0  0  0  0  0  0  0  0  0  0  0
    1.4053   -0.0170   31.5267 H   0  0  0  0  0  0  0  0  0  0  0  0
    1.2703    2.0165   30.1341 H   0  0  0  0  0  0  0  0  0  0  0  0
   -0.3045    3.1076   28.6163 H   0  0  0  0  0  0  0  0  0  0  0  0
   -2.9087    2.3210   27.3991 H   0  0  0  0  0  0  0  0  0  0  0  0
   -2.4134    1.2504   26.0818 H   0  0  0  0  0  0  0  0  0  0  0  0
   -0.4972    2.9407   26.1931 H   0  0  0  0  0  0  0  0  0  0  0  0
   -1.6173   -0.7345   27.2062 H   0  0  0  0  0  0  0  0  0  0  0  0
   -0.0558   -1.8257   28.6903 H   0  0  0  0  0  0  0  0  0  0  0  0
    0.3365   -2.1387   31.0347 H   0  0  0  0  0  0  0  0  0  0  0  0
    1.8167   -2.6672   30.1974 H   0  0  0  0  0  0  0  0  0  0  0  0
    2.1663   -4.1869   33.8509 H   0  0  0  0  0  0  0  0  0  0  0  0
    2.4627   -6.1049   32.8194 H   0  0  0  0  0  0  0  0  0  0  0  0
    2.3469   -5.3564   31.2652 H   0  0  0  0  0  0  0  0  0  0  0  0
    0.8676   -7.6065   33.6560 H   0  0  0  0  0  0  0  0  0  0  0  0
   -0.0280   -6.2875   34.3621 H   0  0  0  0  0  0  0  0  0  0  0  0
   -1.2861   -8.4130   33.8194 H   0  0  0  0  0  0  0  0  0  0  0  0
   -2.0823   -7.6525   31.4114 H   0  0  0  0  0  0  0  0  0  0  0  0
   -0.4479   -6.9065   30.2017 H   0  0  0  0  0  0  0  0  0  0  0  0
    0.7198   -7.9191   30.9826 H   0  0  0  0  0  0  0  0  0  0  0  0
   -1.5016   -5.0040   32.2789 H   0  0  0  0  0  0  0  0  0  0  0  0
    5.1233   -5.5309   26.9465 H   0  0  0  0  0  0  0  0  0  0  0  0
    6.5998   -3.5225   25.8761 H   0  0  0  0  0  0  0  0  0  0  0  0
    5.1713   -1.2391   26.2843 H   0  0  0  0  0  0  0  0  0  0  0  0
    3.0516   -1.8971   27.4620 H   0  0  0  0  0  0  0  0  0  0  0  0
   -0.1016   -4.3661   34.0841 H   0  0  0  0  0  0  0  0  0  0  0  0
  1  2  2  0
  2  3  1  0
  3  4  1  0
  4  5  1  0
  5  6  1  0
  6  7  1  0
  7  8  1  0
  8  9  1  0
  9 10  2  0
 10 11  1  0
 11 12  2  0
 12 13  1  0
 13 14  1  0
 12 15  1  0
 15 16  2  0
  8 17  1  0
  4 18  1  0
 18 19  1  0
 19 20  1  0
 20 21  1  0
 21 22  1  0
 22 23  1  0
 23 24  1  0
 20 25  1  0
 25 26  1  0
 26 27  1  0
 27 28  2  0
 28 29  1  0
 29 30  2  0
 30 31  1  0
 31 32  2  0
 32 33  1  0
 33 34  2  0
 34 35  1  0
 30 36  1  0
 25 37  1  0
 37  2  1  0
 17  4  1  0
 37 18  1  0
 16  9  1  0
 24 20  1  0
 36 27  1  0
 35 31  1  0
  3 38  1  0
  3 39  1  0
  5 40  1  0
  5 41  1  0
  6 42  1  0
  6 43  1  0
  7 44  1  0
  7 45  1  0
  8 46  1  0
 10 47  1  0
 11 48  1  0
 13 49  1  0
 13 50  1  0
 14 51  1  0
 15 52  1  0
 16 53  1  0
 17 54  1  0
 17 55  1  0
 18 56  1  0
 19 57  1  0
 19 58  1  0
 21 59  1  0
 21 60  1  0
 22 61  1  0
 23 62  1  0
 24 63  1  0
 24 64  1  0
 25 65  1  0
 32 66  1  0
 33 67  1  0
 34 68  1  0
 35 69  1  0
 37 70  1  0
M  END
>  <Energy>  (363) 
188.44718697936659

>  <compound_id>  (363) 
4074

>  <target_id>  (363) 
1

>  <reference_id>  (363) 
133

>  <inspiration_ids>  (363) 
[142, 133]

>  <energy_score>  (363) 
4.2605924392973975

>  <distance_score>  (363) 
2.0885177261468972

>  <path>  (363) 
/opt/xchem-fragalysis-2/maxwin/BulkDock/SCRATCH/505735/C4074-P133/C4074-P133.minimised.mol

>  <scratch_subdir>  (363) 
/opt/xchem-fragalysis-2/maxwin/BulkDock/SCRATCH/505735/C4074-P133

>  <fragmenstein_runtime>  (363) 
13.939808130264282

>  <fragmenstein_outcome>  (363) 
too moved

>  <fragmenstein_mode>  (363) 
expansion

>  <fragmenstein_error>  (363) 


$$$$
C4076-P142
     RDKit          3D

 63 68  0  0  0  0  0  0  0  0999 V2000
    0.2383   -2.9234   29.3827 O   0  0  0  0  0  0  0  0  0  0  0  0
    0.4653   -2.9418   30.5612 C   0  0  0  0  0  0  0  0  0  0  0  0
    0.2663   -4.2448   31.3034 C   0  0  0  0  0  0  0  0  0  0  0  0
    0.3587   -4.4004   32.7561 C   0  0  0  0  0  0  0  0  0  0  0  0
    0.0672   -5.5887   33.3324 C   0  0  0  0  0  0  0  0  0  0  0  0
    0.2033   -5.8449   34.6962 N   0  0  0  0  0  0  0  0  0  0  0  0
    1.1909   -6.6698   35.1398 C   0  0  0  0  0  0  0  0  0  0  0  0
    2.1010   -7.3416   34.4677 N   0  0  0  0  0  0  0  0  0  0  0  0
    2.9597   -7.9189   35.3717 N   0  0  0  0  0  0  0  0  0  0  0  0
    2.5273   -7.6382   36.5891 C   0  0  0  0  0  0  0  0  0  0  0  0
    3.1322   -8.0342   37.8568 C   0  0  0  0  0  0  0  0  0  0  0  0
    2.3552   -8.2845   38.9970 C   0  0  0  0  0  0  0  0  0  0  0  0
    2.9588   -8.6671   40.1980 C   0  0  0  0  0  0  0  0  0  0  0  0
    4.3433   -8.8037   40.2716 C   0  0  0  0  0  0  0  0  0  0  0  0
    5.1255   -8.5699   39.1427 C   0  0  0  0  0  0  0  0  0  0  0  0
    4.5222   -8.1924   37.9407 C   0  0  0  0  0  0  0  0  0  0  0  0
    1.3905   -6.8785   36.4737 N   0  0  0  0  0  0  0  0  0  0  0  0
   -0.4086   -6.6124   32.4875 N   0  0  0  0  0  0  0  0  0  0  0  0
   -0.9695   -7.8270   32.7638 C   0  0  0  0  0  0  0  0  0  0  0  0
   -1.3531   -8.4207   31.6549 N   0  0  0  0  0  0  0  0  0  0  0  0
   -1.0374   -7.5936   30.6083 N   0  0  0  0  0  0  0  0  0  0  0  0
   -0.4917   -6.5085   31.1130 C   0  0  0  0  0  0  0  0  0  0  0  0
   -0.1005   -5.2852   30.5263 C   0  0  0  0  0  0  0  0  0  0  0  0
    0.8179   -1.8932   31.4484 N   0  0  0  0  0  0  0  0  0  0  0  0
    2.3320   -1.7556   31.5231 C   0  0  0  0  0  0  0  0  0  0  0  0
    3.1123   -1.6705   30.1998 C   0  0  0  0  0  0  0  0  0  0  0  0
    2.4394   -0.7584   29.1958 C   0  0  0  0  0  0  0  0  0  0  0  0
    1.5168    0.2048   29.9281 C   0  0  0  0  0  0  0  0  0  0  0  0
    0.4764    0.8566   29.0330 C   0  0  0  0  0  0  0  0  0  0  0  0
    0.3732    2.2534   29.0011 C   0  0  0  0  0  0  0  0  0  0  0  0
   -0.5750    2.8842   28.1911 C   0  0  0  0  0  0  0  0  0  0  0  0
   -1.4401    2.1403   27.3807 C   0  0  0  0  0  0  0  0  0  0  0  0
   -2.4704    2.8093   26.5100 C   0  0  0  0  0  0  0  0  0  0  0  0
   -2.0056    4.0868   26.0851 O   0  0  0  0  0  0  0  0  0  0  0  0
   -1.3632    0.7460   27.4364 C   0  0  0  0  0  0  0  0  0  0  0  0
   -0.4149    0.1139   28.2472 C   0  0  0  0  0  0  0  0  0  0  0  0
    0.9116   -0.4037   31.2263 C   0  0  0  0  0  0  0  0  0  0  0  0
    0.7085   -3.5614   33.3462 H   0  0  0  0  0  0  0  0  0  0  0  0
    0.0801   -4.9951   35.2444 H   0  0  0  0  0  0  0  0  0  0  0  0
    1.2691   -8.2337   38.9584 H   0  0  0  0  0  0  0  0  0  0  0  0
    2.3440   -8.8715   41.0713 H   0  0  0  0  0  0  0  0  0  0  0  0
    4.8119   -9.1019   41.2060 H   0  0  0  0  0  0  0  0  0  0  0  0
    6.2054   -8.6839   39.1944 H   0  0  0  0  0  0  0  0  0  0  0  0
    5.1452   -8.0193   37.0647 H   0  0  0  0  0  0  0  0  0  0  0  0
    0.8292   -6.5252   37.2309 H   0  0  0  0  0  0  0  0  0  0  0  0
   -1.0849   -8.2050   33.7675 H   0  0  0  0  0  0  0  0  0  0  0  0
   -0.2078   -5.1885   29.4526 H   0  0  0  0  0  0  0  0  0  0  0  0
    2.6543   -2.7161   31.9566 H   0  0  0  0  0  0  0  0  0  0  0  0
    2.7070   -1.0579   32.2926 H   0  0  0  0  0  0  0  0  0  0  0  0
    3.2299   -2.6684   29.7593 H   0  0  0  0  0  0  0  0  0  0  0  0
    4.1265   -1.3135   30.4156 H   0  0  0  0  0  0  0  0  0  0  0  0
    3.1885   -0.2102   28.6109 H   0  0  0  0  0  0  0  0  0  0  0  0
    1.9007   -1.3662   28.4623 H   0  0  0  0  0  0  0  0  0  0  0  0
    2.1705    1.0168   30.2826 H   0  0  0  0  0  0  0  0  0  0  0  0
    1.0314    2.8772   29.6010 H   0  0  0  0  0  0  0  0  0  0  0  0
   -0.6322    3.9715   28.1883 H   0  0  0  0  0  0  0  0  0  0  0  0
   -3.4048    2.9238   27.0635 H   0  0  0  0  0  0  0  0  0  0  0  0
   -2.6627    2.2155   25.6113 H   0  0  0  0  0  0  0  0  0  0  0  0
   -2.7683    4.6967   26.1508 H   0  0  0  0  0  0  0  0  0  0  0  0
   -2.0258    0.1271   26.8316 H   0  0  0  0  0  0  0  0  0  0  0  0
   -0.3877   -0.9725   28.2295 H   0  0  0  0  0  0  0  0  0  0  0  0
    1.2229    0.1419   32.1352 H   0  0  0  0  0  0  0  0  0  0  0  0
   -0.1589   -0.1423   31.2063 H   0  0  0  0  0  0  0  0  0  0  0  0
  1  2  2  0
  2  3  1  0
  3  4  1  0
  4  5  2  0
  5  6  1  0
  6  7  1  0
  7  8  2  0
  8  9  1  0
  9 10  2  0
 10 11  1  0
 11 12  2  0
 12 13  1  0
 13 14  2  0
 14 15  1  0
 15 16  2  0
 10 17  1  0
  5 18  1  0
 18 19  1  0
 19 20  2  0
 20 21  1  0
 21 22  2  0
 22 23  1  0
  2 24  1  0
 24 25  1  0
 25 26  1  0
 26 27  1  0
 27 28  1  0
 28 29  1  0
 29 30  2  0
 30 31  1  0
 31 32  2  0
 32 33  1  0
 33 34  1  0
 32 35  1  0
 35 36  2  0
 28 37  1  0
 23  3  2  0
 37 24  1  0
 17  7  1  0
 22 18  1  0
 36 29  1  0
 16 11  1  0
  4 38  1  0
  6 39  1  0
 12 40  1  0
 13 41  1  0
 14 42  1  0
 15 43  1  0
 16 44  1  0
 17 45  1  0
 19 46  1  0
 23 47  1  0
 25 48  1  0
 25 49  1  0
 26 50  1  0
 26 51  1  0
 27 52  1  0
 27 53  1  0
 28 54  1  0
 30 55  1  0
 31 56  1  0
 33 57  1  0
 33 58  1  0
 34 59  1  0
 35 60  1  0
 36 61  1  0
 37 62  1  0
 37 63  1  0
M  END
>  <Energy>  (364) 
154.35066902222428

>  <compound_id>  (364) 
4076

>  <target_id>  (364) 
1

>  <reference_id>  (364) 
142

>  <inspiration_ids>  (364) 
[142, 135]

>  <energy_score>  (364) 
24.39040268240217

>  <distance_score>  (364) 
1.768915682757114

>  <path>  (364) 
/opt/xchem-fragalysis-2/maxwin/BulkDock/SCRATCH/505735/C4076-P142/C4076-P142.minimised.mol

>  <scratch_subdir>  (364) 
/opt/xchem-fragalysis-2/maxwin/BulkDock/SCRATCH/505735/C4076-P142

>  <fragmenstein_runtime>  (364) 
15.404120445251465

>  <fragmenstein_outcome>  (364) 
too moved

>  <fragmenstein_mode>  (364) 
expansion

>  <fragmenstein_error>  (364) 


$$$$
C4076-P135
     RDKit          3D

 63 68  0  0  0  0  0  0  0  0999 V2000
    0.0630   -3.3236   29.4105 O   0  0  0  0  0  0  0  0  0  0  0  0
    0.2866   -3.3246   30.5616 C   0  0  0  0  0  0  0  0  0  0  0  0
    0.0810   -4.5570   31.3811 C   0  0  0  0  0  0  0  0  0  0  0  0
   -0.1304   -4.5364   32.8229 C   0  0  0  0  0  0  0  0  0  0  0  0
   -0.4909   -5.6643   33.4667 C   0  0  0  0  0  0  0  0  0  0  0  0
   -0.7404   -5.7038   34.8322 N   0  0  0  0  0  0  0  0  0  0  0  0
    0.0303   -6.4003   35.6983 C   0  0  0  0  0  0  0  0  0  0  0  0
    0.9852   -7.2749   35.4811 N   0  0  0  0  0  0  0  0  0  0  0  0
    1.4784   -7.6685   36.7052 N   0  0  0  0  0  0  0  0  0  0  0  0
    0.8015   -7.0457   37.6548 C   0  0  0  0  0  0  0  0  0  0  0  0
    0.9355   -7.1989   39.1031 C   0  0  0  0  0  0  0  0  0  0  0  0
    1.5860   -8.3260   39.6193 C   0  0  0  0  0  0  0  0  0  0  0  0
    1.6904   -8.5294   40.9971 C   0  0  0  0  0  0  0  0  0  0  0  0
    1.1605   -7.5948   41.8813 C   0  0  0  0  0  0  0  0  0  0  0  0
    0.5257   -6.4580   41.3876 C   0  0  0  0  0  0  0  0  0  0  0  0
    0.4119   -6.2607   40.0074 C   0  0  0  0  0  0  0  0  0  0  0  0
   -0.1144   -6.2287   37.0441 N   0  0  0  0  0  0  0  0  0  0  0  0
   -0.7213   -6.8020   32.6724 N   0  0  0  0  0  0  0  0  0  0  0  0
   -1.2963   -7.9986   32.9721 C   0  0  0  0  0  0  0  0  0  0  0  0
   -1.4747   -8.7084   31.8808 N   0  0  0  0  0  0  0  0  0  0  0  0
   -0.9776   -7.9938   30.8251 N   0  0  0  0  0  0  0  0  0  0  0  0
   -0.5298   -6.8551   31.3030 C   0  0  0  0  0  0  0  0  0  0  0  0
   -0.0542   -5.6912   30.6676 C   0  0  0  0  0  0  0  0  0  0  0  0
    0.6911   -2.2010   31.4755 N   0  0  0  0  0  0  0  0  0  0  0  0
    2.2039   -2.0681   31.5483 C   0  0  0  0  0  0  0  0  0  0  0  0
    2.9762   -2.0678   30.2189 C   0  0  0  0  0  0  0  0  0  0  0  0
    2.2858   -1.2263   29.1657 C   0  0  0  0  0  0  0  0  0  0  0  0
    1.3865   -0.2179   29.8608 C   0  0  0  0  0  0  0  0  0  0  0  0
    0.3171    0.4059   28.9903 C   0  0  0  0  0  0  0  0  0  0  0  0
    0.1761    1.7981   29.0146 C   0  0  0  0  0  0  0  0  0  0  0  0
   -0.7806    2.4383   28.2298 C   0  0  0  0  0  0  0  0  0  0  0  0
   -1.6215    1.7100   27.3876 C   0  0  0  0  0  0  0  0  0  0  0  0
   -2.6446    2.4005   26.5274 C   0  0  0  0  0  0  0  0  0  0  0  0
   -2.2165    3.7246   26.2251 O   0  0  0  0  0  0  0  0  0  0  0  0
   -1.5089    0.3172   27.3915 C   0  0  0  0  0  0  0  0  0  0  0  0
   -0.5565   -0.3296   28.1854 C   0  0  0  0  0  0  0  0  0  0  0  0
    0.8309   -0.7297   31.2135 C   0  0  0  0  0  0  0  0  0  0  0  0
    0.0122   -3.6067   33.3623 H   0  0  0  0  0  0  0  0  0  0  0  0
   -1.1424   -4.8242   35.1577 H   0  0  0  0  0  0  0  0  0  0  0  0
    1.9948   -9.0788   38.9480 H   0  0  0  0  0  0  0  0  0  0  0  0
    2.1717   -9.4303   41.3710 H   0  0  0  0  0  0  0  0  0  0  0  0
    1.2393   -7.7578   42.9530 H   0  0  0  0  0  0  0  0  0  0  0  0
    0.1145   -5.7267   42.0791 H   0  0  0  0  0  0  0  0  0  0  0  0
   -0.0859   -5.3581   39.6663 H   0  0  0  0  0  0  0  0  0  0  0  0
   -0.7982   -5.6523   37.5050 H   0  0  0  0  0  0  0  0  0  0  0  0
   -1.5833   -8.2749   33.9732 H   0  0  0  0  0  0  0  0  0  0  0  0
    0.0621   -5.7098   29.5921 H   0  0  0  0  0  0  0  0  0  0  0  0
    2.5009   -3.0208   32.0178 H   0  0  0  0  0  0  0  0  0  0  0  0
    2.6060   -1.3604   32.2957 H   0  0  0  0  0  0  0  0  0  0  0  0
    3.0962   -3.0912   29.8425 H   0  0  0  0  0  0  0  0  0  0  0  0
    3.9894   -1.6909   30.4029 H   0  0  0  0  0  0  0  0  0  0  0  0
    3.0249   -0.7181   28.5339 H   0  0  0  0  0  0  0  0  0  0  0  0
    1.7333   -1.8750   28.4810 H   0  0  0  0  0  0  0  0  0  0  0  0
    2.0652    0.6036   30.1407 H   0  0  0  0  0  0  0  0  0  0  0  0
    0.8211    2.4158   29.6354 H   0  0  0  0  0  0  0  0  0  0  0  0
   -0.8578    3.5243   28.2671 H   0  0  0  0  0  0  0  0  0  0  0  0
   -3.6080    2.4358   27.0405 H   0  0  0  0  0  0  0  0  0  0  0  0
   -2.7642    1.8727   25.5790 H   0  0  0  0  0  0  0  0  0  0  0  0
   -3.0187    4.2492   26.0475 H   0  0  0  0  0  0  0  0  0  0  0  0
   -2.1334   -0.2938   26.7444 H   0  0  0  0  0  0  0  0  0  0  0  0
   -0.5035   -1.4128   28.1257 H   0  0  0  0  0  0  0  0  0  0  0  0
    1.1796   -0.1437   32.0838 H   0  0  0  0  0  0  0  0  0  0  0  0
   -0.2327   -0.4385   31.2230 H   0  0  0  0  0  0  0  0  0  0  0  0
  1  2  2  0
  2  3  1  0
  3  4  1  0
  4  5  2  0
  5  6  1  0
  6  7  1  0
  7  8  2  0
  8  9  1  0
  9 10  2  0
 10 11  1  0
 11 12  2  0
 12 13  1  0
 13 14  2  0
 14 15  1  0
 15 16  2  0
 10 17  1  0
  5 18  1  0
 18 19  1  0
 19 20  2  0
 20 21  1  0
 21 22  2  0
 22 23  1  0
  2 24  1  0
 24 25  1  0
 25 26  1  0
 26 27  1  0
 27 28  1  0
 28 29  1  0
 29 30  2  0
 30 31  1  0
 31 32  2  0
 32 33  1  0
 33 34  1  0
 32 35  1  0
 35 36  2  0
 28 37  1  0
 23  3  2  0
 37 24  1  0
 17  7  1  0
 22 18  1  0
 36 29  1  0
 16 11  1  0
  4 38  1  0
  6 39  1  0
 12 40  1  0
 13 41  1  0
 14 42  1  0
 15 43  1  0
 16 44  1  0
 17 45  1  0
 19 46  1  0
 23 47  1  0
 25 48  1  0
 25 49  1  0
 26 50  1  0
 26 51  1  0
 27 52  1  0
 27 53  1  0
 28 54  1  0
 30 55  1  0
 31 56  1  0
 33 57  1  0
 33 58  1  0
 34 59  1  0
 35 60  1  0
 36 61  1  0
 37 62  1  0
 37 63  1  0
M  END
>  <Energy>  (365) 
165.5025204031337

>  <compound_id>  (365) 
4076

>  <target_id>  (365) 
1

>  <reference_id>  (365) 
135

>  <inspiration_ids>  (365) 
[142, 135]

>  <energy_score>  (365) 
30.53663640629634

>  <distance_score>  (365) 
1.4986955193701863

>  <path>  (365) 
/opt/xchem-fragalysis-2/maxwin/BulkDock/SCRATCH/505735/C4076-P135/C4076-P135.minimised.mol

>  <scratch_subdir>  (365) 
/opt/xchem-fragalysis-2/maxwin/BulkDock/SCRATCH/505735/C4076-P135

>  <fragmenstein_runtime>  (365) 
10.124616384506226

>  <fragmenstein_outcome>  (365) 
too moved

>  <fragmenstein_mode>  (365) 
expansion

>  <fragmenstein_error>  (365) 


$$$$
C4050-P142
     RDKit          3D

 70 75  0  0  0  0  0  0  0  0999 V2000
   -1.2094   -1.3991   30.7715 O   0  0  0  0  0  0  0  0  0  0  0  0
   -0.2370   -1.9486   31.2076 C   0  0  0  0  0  0  0  0  0  0  0  0
   -0.3584   -3.3087   31.8083 C   0  0  0  0  0  0  0  0  0  0  0  0
   -0.4728   -4.4031   30.8295 C   0  0  0  0  0  0  0  0  0  0  0  0
   -0.3792   -5.6960   31.1805 C   0  0  0  0  0  0  0  0  0  0  0  0
   -0.2383   -6.0227   32.5460 C   0  0  0  0  0  0  0  0  0  0  0  0
   -0.0473   -7.1673   33.1590 N   0  0  0  0  0  0  0  0  0  0  0  0
    0.0068   -6.9084   34.5077 N   0  0  0  0  0  0  0  0  0  0  0  0
   -0.1606   -5.6152   34.6789 C   0  0  0  0  0  0  0  0  0  0  0  0
   -0.2521   -4.9842   33.4675 N   0  0  0  0  0  0  0  0  0  0  0  0
   -0.2752   -3.6178   33.1255 C   0  0  0  0  0  0  0  0  0  0  0  0
    0.0063   -2.6293   34.1481 N   0  0  0  0  0  0  0  0  0  0  0  0
    1.4293   -2.3706   34.4650 C   0  0  0  0  0  0  0  0  0  0  0  0
    1.5556   -2.0518   35.9477 C   0  0  0  0  0  0  0  0  0  0  0  0
    0.7773   -0.7979   36.3570 C   0  0  0  0  0  0  0  0  0  0  0  0
   -0.7257   -0.7793   36.0075 C   0  0  0  0  0  0  0  0  0  0  0  0
   -1.6933   -1.4389   36.9734 C   0  0  0  0  0  0  0  0  0  0  0  0
   -1.3193   -2.4237   37.8969 C   0  0  0  0  0  0  0  0  0  0  0  0
   -2.2272   -2.8966   38.8481 C   0  0  0  0  0  0  0  0  0  0  0  0
   -3.5222   -2.3903   38.8990 C   0  0  0  0  0  0  0  0  0  0  0  0
   -3.9240   -1.4294   37.9804 C   0  0  0  0  0  0  0  0  0  0  0  0
   -3.0188   -0.9607   37.0275 C   0  0  0  0  0  0  0  0  0  0  0  0
   -1.0052   -1.2619   34.2857 S   0  0  0  0  0  0  0  0  0  0  0  0
   -0.4202   -0.1882   33.5042 O   0  0  0  0  0  0  0  0  0  0  0  0
   -2.3779   -1.6555   34.0663 O   0  0  0  0  0  0  0  0  0  0  0  0
    1.1326   -1.5492   31.2125 N   0  0  0  0  0  0  0  0  0  0  0  0
    1.8340   -2.0806   29.9649 C   0  0  0  0  0  0  0  0  0  0  0  0
    3.1555   -1.6656   29.3026 C   0  0  0  0  0  0  0  0  0  0  0  0
    2.8224   -0.4298   28.4975 C   0  0  0  0  0  0  0  0  0  0  0  0
    1.9083    0.4103   29.3841 C   0  0  0  0  0  0  0  0  0  0  0  0
    0.6465    0.9305   28.7308 C   0  0  0  0  0  0  0  0  0  0  0  0
    0.4065    2.3139   28.7526 C   0  0  0  0  0  0  0  0  0  0  0  0
   -0.6645    2.8745   28.0552 C   0  0  0  0  0  0  0  0  0  0  0  0
   -1.5302    2.0700   27.3109 C   0  0  0  0  0  0  0  0  0  0  0  0
   -2.6420    2.6760   26.5005 C   0  0  0  0  0  0  0  0  0  0  0  0
   -2.1972    3.8889   25.8997 O   0  0  0  0  0  0  0  0  0  0  0  0
   -1.3528    0.6847   27.3617 C   0  0  0  0  0  0  0  0  0  0  0  0
   -0.2729    0.1229   28.0548 C   0  0  0  0  0  0  0  0  0  0  0  0
    1.7785   -0.2665   30.7777 C   0  0  0  0  0  0  0  0  0  0  0  0
   -0.6216   -4.1248   29.7866 H   0  0  0  0  0  0  0  0  0  0  0  0
   -0.4416   -6.4971   30.4531 H   0  0  0  0  0  0  0  0  0  0  0  0
   -0.2092   -5.0943   35.6235 H   0  0  0  0  0  0  0  0  0  0  0  0
    2.0353   -3.2570   34.2430 H   0  0  0  0  0  0  0  0  0  0  0  0
    1.8270   -1.5540   33.8542 H   0  0  0  0  0  0  0  0  0  0  0  0
    2.6149   -1.8978   36.1868 H   0  0  0  0  0  0  0  0  0  0  0  0
    1.2340   -2.9189   36.5305 H   0  0  0  0  0  0  0  0  0  0  0  0
    0.9188   -0.6151   37.4293 H   0  0  0  0  0  0  0  0  0  0  0  0
    1.2500    0.0519   35.8449 H   0  0  0  0  0  0  0  0  0  0  0  0
   -0.9985    0.2876   36.0211 H   0  0  0  0  0  0  0  0  0  0  0  0
   -0.3166   -2.8317   37.9295 H   0  0  0  0  0  0  0  0  0  0  0  0
   -1.9268   -3.6659   39.5567 H   0  0  0  0  0  0  0  0  0  0  0  0
   -4.2189   -2.7677   39.6439 H   0  0  0  0  0  0  0  0  0  0  0  0
   -4.9391   -1.0427   38.0030 H   0  0  0  0  0  0  0  0  0  0  0  0
   -3.3604   -0.2019   36.3241 H   0  0  0  0  0  0  0  0  0  0  0  0
    1.0752   -2.2283   29.1820 H   0  0  0  0  0  0  0  0  0  0  0  0
    2.0430   -3.1161   30.2790 H   0  0  0  0  0  0  0  0  0  0  0  0
    3.5085   -2.4538   28.6275 H   0  0  0  0  0  0  0  0  0  0  0  0
    3.9520   -1.4922   30.0350 H   0  0  0  0  0  0  0  0  0  0  0  0
    3.7385    0.1117   28.2352 H   0  0  0  0  0  0  0  0  0  0  0  0
    2.3429   -0.7081   27.5525 H   0  0  0  0  0  0  0  0  0  0  0  0
    2.5077    1.3109   29.5944 H   0  0  0  0  0  0  0  0  0  0  0  0
    1.0719    2.9875   29.2884 H   0  0  0  0  0  0  0  0  0  0  0  0
   -0.8031    3.9540   28.0708 H   0  0  0  0  0  0  0  0  0  0  0  0
   -3.5100    2.8709   27.1303 H   0  0  0  0  0  0  0  0  0  0  0  0
   -2.9436    2.0038   25.6926 H   0  0  0  0  0  0  0  0  0  0  0  0
   -2.8615    4.5737   26.1152 H   0  0  0  0  0  0  0  0  0  0  0  0
   -2.0290    0.0196   26.8256 H   0  0  0  0  0  0  0  0  0  0  0  0
   -0.1696   -0.9558   28.0158 H   0  0  0  0  0  0  0  0  0  0  0  0
    2.7497   -0.2285   31.3017 H   0  0  0  0  0  0  0  0  0  0  0  0
    1.1867    0.4617   31.3556 H   0  0  0  0  0  0  0  0  0  0  0  0
  1  2  2  0
  2  3  1  0
  3  4  1  0
  4  5  2  0
  5  6  1  0
  6  7  2  0
  7  8  1  0
  8  9  2  0
  9 10  1  0
 10 11  1  0
 11 12  1  0
 12 13  1  0
 13 14  1  0
 14 15  1  0
 15 16  1  0
 16 17  1  0
 17 18  2  0
 18 19  1  0
 19 20  2  0
 20 21  1  0
 21 22  2  0
 16 23  1  0
 23 24  2  0
 23 25  2  0
  2 26  1  0
 26 27  1  0
 27 28  1  0
 28 29  1  0
 29 30  1  0
 30 31  1  0
 31 32  2  0
 32 33  1  0
 33 34  2  0
 34 35  1  0
 35 36  1  0
 34 37  1  0
 37 38  2  0
 30 39  1  0
 11  3  2  0
 23 12  1  0
 39 26  1  0
 10  6  1  0
 22 17  1  0
 38 31  1  0
  4 40  1  0
  5 41  1  0
  9 42  1  0
 13 43  1  0
 13 44  1  0
 14 45  1  0
 14 46  1  0
 15 47  1  0
 15 48  1  0
 16 49  1  0
 18 50  1  0
 19 51  1  0
 20 52  1  0
 21 53  1  0
 22 54  1  0
 27 55  1  0
 27 56  1  0
 28 57  1  0
 28 58  1  0
 29 59  1  0
 29 60  1  0
 30 61  1  0
 32 62  1  0
 33 63  1  0
 35 64  1  0
 35 65  1  0
 36 66  1  0
 37 67  1  0
 38 68  1  0
 39 69  1  0
 39 70  1  0
M  END
>  <Energy>  (366) 
204.29780792112012

>  <compound_id>  (366) 
4050

>  <target_id>  (366) 
1

>  <reference_id>  (366) 
142

>  <inspiration_ids>  (366) 
[142, 136]

>  <energy_score>  (366) 
49.87421945971221

>  <distance_score>  (366) 
2.1924085525215586

>  <path>  (366) 
/opt/xchem-fragalysis-2/maxwin/BulkDock/SCRATCH/505735/C4050-P142/C4050-P142.minimised.mol

>  <scratch_subdir>  (366) 
/opt/xchem-fragalysis-2/maxwin/BulkDock/SCRATCH/505735/C4050-P142

>  <fragmenstein_runtime>  (366) 
15.096074342727661

>  <fragmenstein_outcome>  (366) 
too moved

>  <fragmenstein_mode>  (366) 
expansion

>  <fragmenstein_error>  (366) 


$$$$
C4050-P136
     RDKit          3D

 70 75  0  0  0  0  0  0  0  0999 V2000
    0.1362   -2.7449   29.4825 O   0  0  0  0  0  0  0  0  0  0  0  0
    0.5049   -2.6962   30.6261 C   0  0  0  0  0  0  0  0  0  0  0  0
    0.3628   -3.9996   31.4120 C   0  0  0  0  0  0  0  0  0  0  0  0
    0.2581   -5.1941   30.5387 C   0  0  0  0  0  0  0  0  0  0  0  0
    0.0404   -6.4330   30.9985 C   0  0  0  0  0  0  0  0  0  0  0  0
   -0.1051   -6.6236   32.3838 C   0  0  0  0  0  0  0  0  0  0  0  0
   -0.2899   -7.7095   33.0904 N   0  0  0  0  0  0  0  0  0  0  0  0
   -0.3510   -7.3398   34.4063 N   0  0  0  0  0  0  0  0  0  0  0  0
   -0.2290   -6.0337   34.4645 C   0  0  0  0  0  0  0  0  0  0  0  0
   -0.0131   -5.5153   33.2150 N   0  0  0  0  0  0  0  0  0  0  0  0
    0.2523   -4.2098   32.7514 C   0  0  0  0  0  0  0  0  0  0  0  0
    0.4904   -3.0881   33.6281 N   0  0  0  0  0  0  0  0  0  0  0  0
    1.5831   -3.1976   34.6300 C   0  0  0  0  0  0  0  0  0  0  0  0
    2.0128   -1.8055   35.0903 C   0  0  0  0  0  0  0  0  0  0  0  0
    0.8791   -1.0140   35.7455 C   0  0  0  0  0  0  0  0  0  0  0  0
   -0.3095   -0.8156   34.7967 C   0  0  0  0  0  0  0  0  0  0  0  0
   -1.3909    0.0502   35.4210 C   0  0  0  0  0  0  0  0  0  0  0  0
   -2.2224   -0.3900   36.4622 C   0  0  0  0  0  0  0  0  0  0  0  0
   -3.1727    0.4624   37.0297 C   0  0  0  0  0  0  0  0  0  0  0  0
   -3.2926    1.7752   36.5840 C   0  0  0  0  0  0  0  0  0  0  0  0
   -2.4575    2.2398   35.5732 C   0  0  0  0  0  0  0  0  0  0  0  0
   -1.5140    1.3853   34.9977 C   0  0  0  0  0  0  0  0  0  0  0  0
   -0.9646   -2.4119   34.2658 S   0  0  0  0  0  0  0  0  0  0  0  0
   -1.8886   -2.2281   33.1669 O   0  0  0  0  0  0  0  0  0  0  0  0
   -1.2830   -3.2013   35.4378 O   0  0  0  0  0  0  0  0  0  0  0  0
    1.0020   -1.6134   31.3848 N   0  0  0  0  0  0  0  0  0  0  0  0
    2.5135   -1.5435   31.2700 C   0  0  0  0  0  0  0  0  0  0  0  0
    3.1457   -1.5819   29.8725 C   0  0  0  0  0  0  0  0  0  0  0  0
    2.4164   -0.6928   28.8913 C   0  0  0  0  0  0  0  0  0  0  0  0
    1.5829    0.3411   29.6413 C   0  0  0  0  0  0  0  0  0  0  0  0
    0.4545    0.9298   28.8086 C   0  0  0  0  0  0  0  0  0  0  0  0
    0.2868    2.3207   28.7314 C   0  0  0  0  0  0  0  0  0  0  0  0
   -0.7211    2.8836   27.9371 C   0  0  0  0  0  0  0  0  0  0  0  0
   -1.5862    2.0697   27.2004 C   0  0  0  0  0  0  0  0  0  0  0  0
   -2.6443    2.6464   26.3044 C   0  0  0  0  0  0  0  0  0  0  0  0
   -2.3034    2.3809   24.9476 O   0  0  0  0  0  0  0  0  0  0  0  0
   -1.4382    0.6864   27.2992 C   0  0  0  0  0  0  0  0  0  0  0  0
   -0.4418    0.1254   28.0975 C   0  0  0  0  0  0  0  0  0  0  0  0
    1.1265   -0.1482   31.0480 C   0  0  0  0  0  0  0  0  0  0  0  0
    0.3588   -5.0409   29.4663 H   0  0  0  0  0  0  0  0  0  0  0  0
   -0.0326   -7.2890   30.3379 H   0  0  0  0  0  0  0  0  0  0  0  0
   -0.2938   -5.4465   35.3668 H   0  0  0  0  0  0  0  0  0  0  0  0
    1.2833   -3.8056   35.4885 H   0  0  0  0  0  0  0  0  0  0  0  0
    2.4456   -3.6929   34.1678 H   0  0  0  0  0  0  0  0  0  0  0  0
    2.4017   -1.2354   34.2395 H   0  0  0  0  0  0  0  0  0  0  0  0
    2.8371   -1.9058   35.8059 H   0  0  0  0  0  0  0  0  0  0  0  0
    0.5636   -1.5312   36.6606 H   0  0  0  0  0  0  0  0  0  0  0  0
    1.2689   -0.0375   36.0595 H   0  0  0  0  0  0  0  0  0  0  0  0
    0.0333   -0.3354   33.8720 H   0  0  0  0  0  0  0  0  0  0  0  0
   -2.1510   -1.4020   36.8574 H   0  0  0  0  0  0  0  0  0  0  0  0
   -3.8166    0.0973   37.8266 H   0  0  0  0  0  0  0  0  0  0  0  0
   -4.0305    2.4353   37.0321 H   0  0  0  0  0  0  0  0  0  0  0  0
   -2.5362    3.2709   35.2389 H   0  0  0  0  0  0  0  0  0  0  0  0
   -0.8628    1.7768   34.2188 H   0  0  0  0  0  0  0  0  0  0  0  0
    2.8411   -2.4891   31.7324 H   0  0  0  0  0  0  0  0  0  0  0  0
    3.0074   -0.8182   31.9402 H   0  0  0  0  0  0  0  0  0  0  0  0
    3.1615   -2.6093   29.4876 H   0  0  0  0  0  0  0  0  0  0  0  0
    4.1952   -1.2746   29.9545 H   0  0  0  0  0  0  0  0  0  0  0  0
    3.1270   -0.1989   28.2166 H   0  0  0  0  0  0  0  0  0  0  0  0
    1.8071   -1.3253   28.2387 H   0  0  0  0  0  0  0  0  0  0  0  0
    2.2731    1.1738   29.8474 H   0  0  0  0  0  0  0  0  0  0  0  0
    0.9491    2.9912   29.2738 H   0  0  0  0  0  0  0  0  0  0  0  0
   -0.8168    3.9663   27.8865 H   0  0  0  0  0  0  0  0  0  0  0  0
   -2.7262    3.7278   26.4298 H   0  0  0  0  0  0  0  0  0  0  0  0
   -3.6166    2.1957   26.5320 H   0  0  0  0  0  0  0  0  0  0  0  0
   -3.1468    2.3817   24.4501 H   0  0  0  0  0  0  0  0  0  0  0  0
   -2.0760    0.0204   26.7216 H   0  0  0  0  0  0  0  0  0  0  0  0
   -0.3750   -0.9584   28.1086 H   0  0  0  0  0  0  0  0  0  0  0  0
    1.5740    0.4417   31.8680 H   0  0  0  0  0  0  0  0  0  0  0  0
    0.0737    0.1645   31.1412 H   0  0  0  0  0  0  0  0  0  0  0  0
  1  2  2  0
  2  3  1  0
  3  4  1  0
  4  5  2  0
  5  6  1  0
  6  7  2  0
  7  8  1  0
  8  9  2  0
  9 10  1  0
 10 11  1  0
 11 12  1  0
 12 13  1  0
 13 14  1  0
 14 15  1  0
 15 16  1  0
 16 17  1  0
 17 18  2  0
 18 19  1  0
 19 20  2  0
 20 21  1  0
 21 22  2  0
 16 23  1  0
 23 24  2  0
 23 25  2  0
  2 26  1  0
 26 27  1  0
 27 28  1  0
 28 29  1  0
 29 30  1  0
 30 31  1  0
 31 32  2  0
 32 33  1  0
 33 34  2  0
 34 35  1  0
 35 36  1  0
 34 37  1  0
 37 38  2  0
 30 39  1  0
 11  3  2  0
 23 12  1  0
 39 26  1  0
 10  6  1  0
 22 17  1  0
 38 31  1  0
  4 40  1  0
  5 41  1  0
  9 42  1  0
 13 43  1  0
 13 44  1  0
 14 45  1  0
 14 46  1  0
 15 47  1  0
 15 48  1  0
 16 49  1  0
 18 50  1  0
 19 51  1  0
 20 52  1  0
 21 53  1  0
 22 54  1  0
 27 55  1  0
 27 56  1  0
 28 57  1  0
 28 58  1  0
 29 59  1  0
 29 60  1  0
 30 61  1  0
 32 62  1  0
 33 63  1  0
 35 64  1  0
 35 65  1  0
 36 66  1  0
 37 67  1  0
 38 68  1  0
 39 69  1  0
 39 70  1  0
M  END
>  <Energy>  (367) 
176.50171350942242

>  <compound_id>  (367) 
4050

>  <target_id>  (367) 
1

>  <reference_id>  (367) 
136

>  <inspiration_ids>  (367) 
[142, 136]

>  <energy_score>  (367) 
22.07812504801018

>  <distance_score>  (367) 
2.046472522790461

>  <path>  (367) 
/opt/xchem-fragalysis-2/maxwin/BulkDock/SCRATCH/505735/C4050-P136/C4050-P136.minimised.mol

>  <scratch_subdir>  (367) 
/opt/xchem-fragalysis-2/maxwin/BulkDock/SCRATCH/505735/C4050-P136

>  <fragmenstein_runtime>  (367) 
15.720903635025024

>  <fragmenstein_outcome>  (367) 
too moved

>  <fragmenstein_mode>  (367) 
expansion

>  <fragmenstein_error>  (367) 


$$$$
C4077-P142
     RDKit          3D

 72 77  0  0  0  0  0  0  0  0999 V2000
    0.1812   -4.0842   30.1095 O   0  0  0  0  0  0  0  0  0  0  0  0
    0.6575   -3.7075   31.1163 C   0  0  0  0  0  0  0  0  0  0  0  0
    0.9053   -4.4189   32.3748 N   0  0  0  0  0  0  0  0  0  0  0  0
    0.5709   -5.6880   32.7662 C   0  0  0  0  0  0  0  0  0  0  0  0
   -0.3104   -6.4512   31.8769 C   0  0  0  0  0  0  0  0  0  0  0  0
   -1.2229   -7.3080   32.3618 C   0  0  0  0  0  0  0  0  0  0  0  0
   -1.3161   -7.4698   33.7602 C   0  0  0  0  0  0  0  0  0  0  0  0
   -2.2510   -7.9693   34.5311 N   0  0  0  0  0  0  0  0  0  0  0  0
   -1.7878   -7.9318   35.8101 N   0  0  0  0  0  0  0  0  0  0  0  0
   -0.5870   -7.4017   35.7980 C   0  0  0  0  0  0  0  0  0  0  0  0
   -0.2848   -6.9753   34.5388 N   0  0  0  0  0  0  0  0  0  0  0  0
    0.7084   -6.1179   34.0441 C   0  0  0  0  0  0  0  0  0  0  0  0
    1.7639   -5.5786   34.8692 N   0  0  0  0  0  0  0  0  0  0  0  0
    3.1604   -5.5844   34.3652 C   0  0  0  0  0  0  0  0  0  0  0  0
    4.0723   -4.5434   35.0075 C   0  0  0  0  0  0  0  0  0  0  0  0
    4.0093   -4.5117   36.5322 C   0  0  0  0  0  0  0  0  0  0  0  0
    2.5980   -4.3978   37.1415 C   0  0  0  0  0  0  0  0  0  0  0  0
    2.2721   -5.5043   38.1372 C   0  0  0  0  0  0  0  0  0  0  0  0
    1.6939   -5.1681   39.3728 C   0  0  0  0  0  0  0  0  0  0  0  0
    1.3604   -6.1532   40.3059 C   0  0  0  0  0  0  0  0  0  0  0  0
    1.5951   -7.4929   40.0203 C   0  0  0  0  0  0  0  0  0  0  0  0
    2.1740   -7.8454   38.8063 C   0  0  0  0  0  0  0  0  0  0  0  0
    2.5155   -6.8619   37.8742 C   0  0  0  0  0  0  0  0  0  0  0  0
    1.2970   -4.2999   35.8785 S   0  0  0  0  0  0  0  0  0  0  0  0
    1.4909   -3.0965   35.0911 O   0  0  0  0  0  0  0  0  0  0  0  0
    0.0056   -4.5863   36.4566 O   0  0  0  0  0  0  0  0  0  0  0  0
    1.0867   -2.3631   31.5157 N   0  0  0  0  0  0  0  0  0  0  0  0
    2.5603   -2.1518   31.1559 C   0  0  0  0  0  0  0  0  0  0  0  0
    3.0083   -2.2962   29.6848 C   0  0  0  0  0  0  0  0  0  0  0  0
    2.3985   -1.1967   28.8321 C   0  0  0  0  0  0  0  0  0  0  0  0
    0.9470   -1.0863   29.2626 C   0  0  0  0  0  0  0  0  0  0  0  0
    0.1758    0.0458   28.6245 C   0  0  0  0  0  0  0  0  0  0  0  0
    0.5208    1.3933   28.7688 C   0  0  0  0  0  0  0  0  0  0  0  0
   -0.2438    2.3936   28.1499 C   0  0  0  0  0  0  0  0  0  0  0  0
   -1.3546    2.0688   27.3612 C   0  0  0  0  0  0  0  0  0  0  0  0
   -2.2198    3.0976   26.6812 C   0  0  0  0  0  0  0  0  0  0  0  0
   -1.6191    4.3860   26.6695 O   0  0  0  0  0  0  0  0  0  0  0  0
   -1.7018    0.7227   27.2326 C   0  0  0  0  0  0  0  0  0  0  0  0
   -0.9587   -0.2712   27.8654 C   0  0  0  0  0  0  0  0  0  0  0  0
    0.9448   -1.0382   30.8065 C   0  0  0  0  0  0  0  0  0  0  0  0
    1.2570   -3.7593   33.0678 H   0  0  0  0  0  0  0  0  0  0  0  0
   -0.2294   -6.3110   30.8038 H   0  0  0  0  0  0  0  0  0  0  0  0
   -1.9050   -7.8590   31.7278 H   0  0  0  0  0  0  0  0  0  0  0  0
    0.0337   -7.2480   36.6644 H   0  0  0  0  0  0  0  0  0  0  0  0
    3.1963   -5.4405   33.2823 H   0  0  0  0  0  0  0  0  0  0  0  0
    3.5685   -6.5798   34.5774 H   0  0  0  0  0  0  0  0  0  0  0  0
    5.1063   -4.7458   34.7011 H   0  0  0  0  0  0  0  0  0  0  0  0
    3.8468   -3.5479   34.6082 H   0  0  0  0  0  0  0  0  0  0  0  0
    4.5996   -3.6507   36.8745 H   0  0  0  0  0  0  0  0  0  0  0  0
    4.5488   -5.3823   36.9246 H   0  0  0  0  0  0  0  0  0  0  0  0
    2.5377   -3.4315   37.6604 H   0  0  0  0  0  0  0  0  0  0  0  0
    1.4726   -4.1305   39.6186 H   0  0  0  0  0  0  0  0  0  0  0  0
    0.8954   -5.8727   41.2480 H   0  0  0  0  0  0  0  0  0  0  0  0
    1.3124   -8.2629   40.7332 H   0  0  0  0  0  0  0  0  0  0  0  0
    2.3404   -8.8945   38.5786 H   0  0  0  0  0  0  0  0  0  0  0  0
    2.9534   -7.1856   36.9351 H   0  0  0  0  0  0  0  0  0  0  0  0
    3.0117   -1.2827   31.6642 H   0  0  0  0  0  0  0  0  0  0  0  0
    3.0640   -2.9874   31.6678 H   0  0  0  0  0  0  0  0  0  0  0  0
    4.1014   -2.2513   29.6223 H   0  0  0  0  0  0  0  0  0  0  0  0
    2.7088   -3.2765   29.2956 H   0  0  0  0  0  0  0  0  0  0  0  0
    2.9359   -0.2566   29.0070 H   0  0  0  0  0  0  0  0  0  0  0  0
    2.4918   -1.4273   27.7657 H   0  0  0  0  0  0  0  0  0  0  0  0
    0.4541   -2.0122   28.9450 H   0  0  0  0  0  0  0  0  0  0  0  0
    1.3828    1.6894   29.3598 H   0  0  0  0  0  0  0  0  0  0  0  0
    0.0353    3.4378   28.2816 H   0  0  0  0  0  0  0  0  0  0  0  0
   -3.1773    3.1619   27.2024 H   0  0  0  0  0  0  0  0  0  0  0  0
   -2.3994    2.8078   25.6404 H   0  0  0  0  0  0  0  0  0  0  0  0
   -2.3519    5.0076   26.4788 H   0  0  0  0  0  0  0  0  0  0  0  0
   -2.5515    0.4285   26.6206 H   0  0  0  0  0  0  0  0  0  0  0  0
   -1.2699   -1.3073   27.7288 H   0  0  0  0  0  0  0  0  0  0  0  0
    1.4784   -0.1858   31.2606 H   0  0  0  0  0  0  0  0  0  0  0  0
   -0.0982   -0.7970   31.0711 H   0  0  0  0  0  0  0  0  0  0  0  0
  1  2  2  0
  2  3  1  0
  3  4  1  0
  4  5  1  0
  5  6  2  0
  6  7  1  0
  7  8  2  0
  8  9  1  0
  9 10  2  0
 10 11  1  0
 11 12  1  0
 12 13  1  0
 13 14  1  0
 14 15  1  0
 15 16  1  0
 16 17  1  0
 17 18  1  0
 18 19  2  0
 19 20  1  0
 20 21  2  0
 21 22  1  0
 22 23  2  0
 17 24  1  0
 24 25  2  0
 24 26  2  0
  2 27  1  0
 27 28  1  0
 28 29  1  0
 29 30  1  0
 30 31  1  0
 31 32  1  0
 32 33  2  0
 33 34  1  0
 34 35  2  0
 35 36  1  0
 36 37  1  0
 35 38  1  0
 38 39  2  0
 31 40  1  0
 12  4  2  0
 24 13  1  0
 40 27  1  0
 11  7  1  0
 23 18  1  0
 39 32  1  0
  3 41  1  0
  5 42  1  0
  6 43  1  0
 10 44  1  0
 14 45  1  0
 14 46  1  0
 15 47  1  0
 15 48  1  0
 16 49  1  0
 16 50  1  0
 17 51  1  0
 19 52  1  0
 20 53  1  0
 21 54  1  0
 22 55  1  0
 23 56  1  0
 28 57  1  0
 28 58  1  0
 29 59  1  0
 29 60  1  0
 30 61  1  0
 30 62  1  0
 31 63  1  0
 33 64  1  0
 34 65  1  0
 36 66  1  0
 36 67  1  0
 37 68  1  0
 38 69  1  0
 39 70  1  0
 40 71  1  0
 40 72  1  0
M  END
>  <Energy>  (368) 
130.28060084164261

>  <compound_id>  (368) 
4077

>  <target_id>  (368) 
1

>  <reference_id>  (368) 
142

>  <inspiration_ids>  (368) 
[142, 140]

>  <energy_score>  (368) 
10.15951699895902

>  <distance_score>  (368) 
2.011042055218511

>  <path>  (368) 
/opt/xchem-fragalysis-2/maxwin/BulkDock/SCRATCH/505735/C4077-P142/C4077-P142.minimised.mol

>  <scratch_subdir>  (368) 
/opt/xchem-fragalysis-2/maxwin/BulkDock/SCRATCH/505735/C4077-P142

>  <fragmenstein_runtime>  (368) 
49.48151612281799

>  <fragmenstein_outcome>  (368) 
too moved

>  <fragmenstein_mode>  (368) 
expansion

>  <fragmenstein_error>  (368) 


$$$$
C4077-P140
     RDKit          3D

 72 77  0  0  0  0  0  0  0  0999 V2000
    0.9186   -3.2373   31.4263 O   0  0  0  0  0  0  0  0  0  0  0  0
    0.2389   -2.8786   32.3160 C   0  0  0  0  0  0  0  0  0  0  0  0
   -0.2025   -3.5937   33.5281 N   0  0  0  0  0  0  0  0  0  0  0  0
   -0.0227   -4.8936   33.9117 C   0  0  0  0  0  0  0  0  0  0  0  0
   -1.1218   -5.5549   34.6081 C   0  0  0  0  0  0  0  0  0  0  0  0
   -1.6069   -6.7301   34.1480 C   0  0  0  0  0  0  0  0  0  0  0  0
   -1.1506   -7.2135   32.8950 C   0  0  0  0  0  0  0  0  0  0  0  0
   -1.6600   -8.0116   31.9828 N   0  0  0  0  0  0  0  0  0  0  0  0
   -0.8318   -7.9715   30.8855 N   0  0  0  0  0  0  0  0  0  0  0  0
    0.1742   -7.1766   31.1790 C   0  0  0  0  0  0  0  0  0  0  0  0
    0.0626   -6.7192   32.4628 N   0  0  0  0  0  0  0  0  0  0  0  0
    0.7343   -5.6626   33.0919 C   0  0  0  0  0  0  0  0  0  0  0  0
    2.1089   -5.8141   33.5799 N   0  0  0  0  0  0  0  0  0  0  0  0
    3.0134   -4.6245   33.4972 C   0  0  0  0  0  0  0  0  0  0  0  0
    4.2818   -4.7673   34.3345 C   0  0  0  0  0  0  0  0  0  0  0  0
    4.0382   -4.8677   35.8474 C   0  0  0  0  0  0  0  0  0  0  0  0
    2.7195   -5.5461   36.2345 C   0  0  0  0  0  0  0  0  0  0  0  0
    2.6732   -6.2075   37.6009 C   0  0  0  0  0  0  0  0  0  0  0  0
    3.6816   -7.0720   38.0558 C   0  0  0  0  0  0  0  0  0  0  0  0
    3.5564   -7.7337   39.2804 C   0  0  0  0  0  0  0  0  0  0  0  0
    2.4219   -7.5480   40.0652 C   0  0  0  0  0  0  0  0  0  0  0  0
    1.4137   -6.6930   39.6325 C   0  0  0  0  0  0  0  0  0  0  0  0
    1.5384   -6.0262   38.4123 C   0  0  0  0  0  0  0  0  0  0  0  0
    2.2485   -6.7881   35.0163 S   0  0  0  0  0  0  0  0  0  0  0  0
    0.9593   -7.3416   35.3483 O   0  0  0  0  0  0  0  0  0  0  0  0
    3.3438   -7.7037   34.7820 O   0  0  0  0  0  0  0  0  0  0  0  0
   -0.4934   -1.6291   32.4971 N   0  0  0  0  0  0  0  0  0  0  0  0
    0.3824   -0.6096   33.2228 C   0  0  0  0  0  0  0  0  0  0  0  0
    1.7619   -0.2933   32.6045 C   0  0  0  0  0  0  0  0  0  0  0  0
    1.5820    0.4815   31.3138 C   0  0  0  0  0  0  0  0  0  0  0  0
    0.4388   -0.1595   30.5357 C   0  0  0  0  0  0  0  0  0  0  0  0
   -0.1093    0.6372   29.3643 C   0  0  0  0  0  0  0  0  0  0  0  0
   -0.0086    2.0279   29.2589 C   0  0  0  0  0  0  0  0  0  0  0  0
   -0.6850    2.7227   28.2485 C   0  0  0  0  0  0  0  0  0  0  0  0
   -1.4634    2.0482   27.3045 C   0  0  0  0  0  0  0  0  0  0  0  0
   -2.3356    2.7852   26.3199 C   0  0  0  0  0  0  0  0  0  0  0  0
   -1.8504    4.1012   26.0813 O   0  0  0  0  0  0  0  0  0  0  0  0
   -1.4948    0.6521   27.3582 C   0  0  0  0  0  0  0  0  0  0  0  0
   -0.8299   -0.0441   28.3705 C   0  0  0  0  0  0  0  0  0  0  0  0
   -0.6972   -0.4647   31.5546 C   0  0  0  0  0  0  0  0  0  0  0  0
   -0.8525   -3.0084   34.0419 H   0  0  0  0  0  0  0  0  0  0  0  0
   -1.4563   -5.1419   35.5536 H   0  0  0  0  0  0  0  0  0  0  0  0
   -2.3351   -7.3138   34.6910 H   0  0  0  0  0  0  0  0  0  0  0  0
    0.9524   -6.8594   30.5053 H   0  0  0  0  0  0  0  0  0  0  0  0
    2.4949   -3.7164   33.8185 H   0  0  0  0  0  0  0  0  0  0  0  0
    3.2970   -4.4949   32.4465 H   0  0  0  0  0  0  0  0  0  0  0  0
    4.8445   -5.6470   34.0057 H   0  0  0  0  0  0  0  0  0  0  0  0
    4.9381   -3.9094   34.1439 H   0  0  0  0  0  0  0  0  0  0  0  0
    4.0433   -3.8599   36.2830 H   0  0  0  0  0  0  0  0  0  0  0  0
    4.9058   -5.3722   36.2868 H   0  0  0  0  0  0  0  0  0  0  0  0
    1.9245   -4.7900   36.1921 H   0  0  0  0  0  0  0  0  0  0  0  0
    4.5613   -7.2805   37.4502 H   0  0  0  0  0  0  0  0  0  0  0  0
    4.3334   -8.4188   39.6105 H   0  0  0  0  0  0  0  0  0  0  0  0
    2.3131   -8.0884   41.0024 H   0  0  0  0  0  0  0  0  0  0  0  0
    0.5197   -6.5646   40.2374 H   0  0  0  0  0  0  0  0  0  0  0  0
    0.7179   -5.3889   38.0895 H   0  0  0  0  0  0  0  0  0  0  0  0
   -0.1562    0.2794   33.5920 H   0  0  0  0  0  0  0  0  0  0  0  0
    0.6280   -1.1207   34.1674 H   0  0  0  0  0  0  0  0  0  0  0  0
    2.3565    0.2979   33.3105 H   0  0  0  0  0  0  0  0  0  0  0  0
    2.3252   -1.2135   32.4153 H   0  0  0  0  0  0  0  0  0  0  0  0
    1.3502    1.5169   31.5867 H   0  0  0  0  0  0  0  0  0  0  0  0
    2.5072    0.5027   30.7276 H   0  0  0  0  0  0  0  0  0  0  0  0
    0.8182   -1.1025   30.1216 H   0  0  0  0  0  0  0  0  0  0  0  0
    0.5501    2.6212   29.9756 H   0  0  0  0  0  0  0  0  0  0  0  0
   -0.6339    3.8110   28.2287 H   0  0  0  0  0  0  0  0  0  0  0  0
   -3.3534    2.8485   26.7184 H   0  0  0  0  0  0  0  0  0  0  0  0
   -2.3607    2.2631   25.3595 H   0  0  0  0  0  0  0  0  0  0  0  0
   -2.6210    4.6347   25.8102 H   0  0  0  0  0  0  0  0  0  0  0  0
   -2.0564    0.0826   26.6203 H   0  0  0  0  0  0  0  0  0  0  0  0
   -0.9106   -1.1309   28.3837 H   0  0  0  0  0  0  0  0  0  0  0  0
   -1.5205   -0.8715   30.9450 H   0  0  0  0  0  0  0  0  0  0  0  0
   -1.1859    0.4255   31.9879 H   0  0  0  0  0  0  0  0  0  0  0  0
  1  2  2  0
  2  3  1  0
  3  4  1  0
  4  5  1  0
  5  6  2  0
  6  7  1  0
  7  8  2  0
  8  9  1  0
  9 10  2  0
 10 11  1  0
 11 12  1  0
 12 13  1  0
 13 14  1  0
 14 15  1  0
 15 16  1  0
 16 17  1  0
 17 18  1  0
 18 19  2  0
 19 20  1  0
 20 21  2  0
 21 22  1  0
 22 23  2  0
 17 24  1  0
 24 25  2  0
 24 26  2  0
  2 27  1  0
 27 28  1  0
 28 29  1  0
 29 30  1  0
 30 31  1  0
 31 32  1  0
 32 33  2  0
 33 34  1  0
 34 35  2  0
 35 36  1  0
 36 37  1  0
 35 38  1  0
 38 39  2  0
 31 40  1  0
 12  4  2  0
 24 13  1  0
 40 27  1  0
 11  7  1  0
 23 18  1  0
 39 32  1  0
  3 41  1  0
  5 42  1  0
  6 43  1  0
 10 44  1  0
 14 45  1  0
 14 46  1  0
 15 47  1  0
 15 48  1  0
 16 49  1  0
 16 50  1  0
 17 51  1  0
 19 52  1  0
 20 53  1  0
 21 54  1  0
 22 55  1  0
 23 56  1  0
 28 57  1  0
 28 58  1  0
 29 59  1  0
 29 60  1  0
 30 61  1  0
 30 62  1  0
 31 63  1  0
 33 64  1  0
 34 65  1  0
 36 66  1  0
 36 67  1  0
 37 68  1  0
 38 69  1  0
 39 70  1  0
 40 71  1  0
 40 72  1  0
M  END
>  <Energy>  (369) 
180.8333550862225

>  <compound_id>  (369) 
4077

>  <target_id>  (369) 
1

>  <reference_id>  (369) 
140

>  <inspiration_ids>  (369) 
[142, 140]

>  <energy_score>  (369) 
60.71227124352754

>  <distance_score>  (369) 
2.154649437623443

>  <path>  (369) 
/opt/xchem-fragalysis-2/maxwin/BulkDock/SCRATCH/505735/C4077-P140/C4077-P140.minimised.mol

>  <scratch_subdir>  (369) 
/opt/xchem-fragalysis-2/maxwin/BulkDock/SCRATCH/505735/C4077-P140

>  <fragmenstein_runtime>  (369) 
49.06865644454956

>  <fragmenstein_outcome>  (369) 
too moved

>  <fragmenstein_mode>  (369) 
expansion

>  <fragmenstein_error>  (369) 


$$$$
C4078-P142
     RDKit          3D

 81 86  0  0  0  0  0  0  0  0999 V2000
    2.0846   -4.0435   35.3238 O   0  0  0  0  0  0  0  0  0  0  0  0
    2.8183   -4.9103   35.7063 C   0  0  0  0  0  0  0  0  0  0  0  0
    2.6809   -5.8476   36.7856 N   0  0  0  0  0  0  0  0  0  0  0  0
    1.7164   -5.9723   37.7526 C   0  0  0  0  0  0  0  0  0  0  0  0
    0.6594   -5.1443   37.8282 C   0  0  0  0  0  0  0  0  0  0  0  0
   -0.2794   -5.2318   38.8213 N   0  0  0  0  0  0  0  0  0  0  0  0
   -0.2355   -6.1395   39.8494 C   0  0  0  0  0  0  0  0  0  0  0  0
   -1.0669   -6.1424   40.7490 O   0  0  0  0  0  0  0  0  0  0  0  0
    0.8833   -7.1090   39.8158 C   0  0  0  0  0  0  0  0  0  0  0  0
    0.9578   -8.0757   40.8275 C   0  0  0  0  0  0  0  0  0  0  0  0
    2.0082   -8.9851   40.8403 C   0  0  0  0  0  0  0  0  0  0  0  0
    2.9747   -8.9312   39.8415 C   0  0  0  0  0  0  0  0  0  0  0  0
    2.8942   -7.9697   38.8252 C   0  0  0  0  0  0  0  0  0  0  0  0
    1.8464   -7.0330   38.7917 C   0  0  0  0  0  0  0  0  0  0  0  0
    4.1136   -5.1425   35.0507 C   0  0  0  0  0  0  0  0  0  0  0  0
    4.9462   -6.2111   35.3741 N   0  0  0  0  0  0  0  0  0  0  0  0
    5.9937   -6.0269   34.6012 C   0  0  0  0  0  0  0  0  0  0  0  0
    5.9355   -4.9333   33.7941 O   0  0  0  0  0  0  0  0  0  0  0  0
    4.7256   -4.3624   34.0898 C   0  0  0  0  0  0  0  0  0  0  0  0
    4.3762   -3.0981   33.4052 C   0  0  0  0  0  0  0  0  0  0  0  0
    3.5150   -3.3369   32.2433 N   0  0  0  0  0  0  0  0  0  0  0  0
    4.2916   -3.4841   31.0051 C   0  0  0  0  0  0  0  0  0  0  0  0
    3.4187   -3.9548   29.8144 C   0  0  0  0  0  0  0  0  0  0  0  0
    2.7580   -2.9142   29.0162 N   0  0  0  0  0  0  0  0  0  0  0  0
    1.7172   -2.1459   29.7047 C   0  0  0  0  0  0  0  0  0  0  0  0
    1.2951   -0.9852   28.8236 C   0  0  0  0  0  0  0  0  0  0  0  0
    0.1209   -0.3182   29.5242 C   0  0  0  0  0  0  0  0  0  0  0  0
   -0.5532    0.6527   28.5816 C   0  0  0  0  0  0  0  0  0  0  0  0
   -0.2537    2.0177   28.6481 C   0  0  0  0  0  0  0  0  0  0  0  0
   -0.8537    2.9202   27.7658 C   0  0  0  0  0  0  0  0  0  0  0  0
   -1.7565    2.4774   26.7936 C   0  0  0  0  0  0  0  0  0  0  0  0
   -2.4263    3.3955   25.8102 C   0  0  0  0  0  0  0  0  0  0  0  0
   -1.8672    4.7011   25.8491 O   0  0  0  0  0  0  0  0  0  0  0  0
   -2.0625    1.1179   26.7399 C   0  0  0  0  0  0  0  0  0  0  0  0
   -1.4538    0.2138   27.6041 C   0  0  0  0  0  0  0  0  0  0  0  0
   -0.8482   -1.3956   30.0546 C   0  0  0  0  0  0  0  0  0  0  0  0
   -0.4208   -2.3018   31.1787 N   0  0  0  0  0  0  0  0  0  0  0  0
   -1.1415   -3.3148   31.8836 C   0  0  0  0  0  0  0  0  0  0  0  0
   -2.2429   -3.7623   31.6985 O   0  0  0  0  0  0  0  0  0  0  0  0
   -0.2752   -3.9336   32.9770 C   0  0  0  0  0  0  0  0  0  0  0  0
   -0.2684   -5.3835   32.8992 N   0  0  0  0  0  0  0  0  0  0  0  0
   -0.2933   -6.2447   33.9508 C   0  0  0  0  0  0  0  0  0  0  0  0
   -0.2138   -7.4762   33.5049 N   0  0  0  0  0  0  0  0  0  0  0  0
   -0.1777   -7.4286   32.1330 N   0  0  0  0  0  0  0  0  0  0  0  0
   -0.2211   -6.1658   31.7846 C   0  0  0  0  0  0  0  0  0  0  0  0
    0.4189   -2.9325   30.0564 C   0  0  0  0  0  0  0  0  0  0  0  0
    3.4652   -6.4932   36.7645 H   0  0  0  0  0  0  0  0  0  0  0  0
    0.4863   -4.3414   37.1202 H   0  0  0  0  0  0  0  0  0  0  0  0
   -1.0581   -4.5829   38.8540 H   0  0  0  0  0  0  0  0  0  0  0  0
    0.1977   -8.1160   41.6047 H   0  0  0  0  0  0  0  0  0  0  0  0
    2.0696   -9.7332   41.6257 H   0  0  0  0  0  0  0  0  0  0  0  0
    3.7967   -9.6428   39.8461 H   0  0  0  0  0  0  0  0  0  0  0  0
    3.6724   -7.9863   38.0696 H   0  0  0  0  0  0  0  0  0  0  0  0
    6.8865   -6.6331   34.5283 H   0  0  0  0  0  0  0  0  0  0  0  0
    5.2758   -2.5319   33.1349 H   0  0  0  0  0  0  0  0  0  0  0  0
    3.8312   -2.4609   34.1120 H   0  0  0  0  0  0  0  0  0  0  0  0
    2.9068   -2.5276   32.1570 H   0  0  0  0  0  0  0  0  0  0  0  0
    5.0741   -4.2374   31.1552 H   0  0  0  0  0  0  0  0  0  0  0  0
    4.7977   -2.5444   30.7520 H   0  0  0  0  0  0  0  0  0  0  0  0
    2.7032   -4.7201   30.1346 H   0  0  0  0  0  0  0  0  0  0  0  0
    4.0889   -4.4773   29.1194 H   0  0  0  0  0  0  0  0  0  0  0  0
    3.4668   -2.2733   28.6549 H   0  0  0  0  0  0  0  0  0  0  0  0
    2.1317   -1.7003   30.6121 H   0  0  0  0  0  0  0  0  0  0  0  0
    1.0010   -1.3518   27.8330 H   0  0  0  0  0  0  0  0  0  0  0  0
    2.1159   -0.2733   28.6695 H   0  0  0  0  0  0  0  0  0  0  0  0
    0.4967    0.2354   30.3965 H   0  0  0  0  0  0  0  0  0  0  0  0
    0.4486    2.4004   29.3845 H   0  0  0  0  0  0  0  0  0  0  0  0
   -0.6092    3.9781   27.8405 H   0  0  0  0  0  0  0  0  0  0  0  0
   -3.4996    3.4418   26.0164 H   0  0  0  0  0  0  0  0  0  0  0  0
   -2.2844    3.0145   24.7933 H   0  0  0  0  0  0  0  0  0  0  0  0
   -2.6116    5.2943   26.0872 H   0  0  0  0  0  0  0  0  0  0  0  0
   -2.7677    0.7429   26.0026 H   0  0  0  0  0  0  0  0  0  0  0  0
   -1.6950   -0.8392   27.4702 H   0  0  0  0  0  0  0  0  0  0  0  0
   -1.6498   -0.8234   30.5529 H   0  0  0  0  0  0  0  0  0  0  0  0
   -1.4471   -1.9271   29.2960 H   0  0  0  0  0  0  0  0  0  0  0  0
   -0.6834   -3.6389   33.9493 H   0  0  0  0  0  0  0  0  0  0  0  0
    0.7639   -3.6033   32.9139 H   0  0  0  0  0  0  0  0  0  0  0  0
   -0.3607   -5.9432   34.9859 H   0  0  0  0  0  0  0  0  0  0  0  0
   -0.2305   -5.8008   30.7690 H   0  0  0  0  0  0  0  0  0  0  0  0
   -0.1408   -3.3369   29.1943 H   0  0  0  0  0  0  0  0  0  0  0  0
    0.7848   -3.8542   30.5183 H   0  0  0  0  0  0  0  0  0  0  0  0
  1  2  2  0
  2  3  1  0
  3  4  1  0
  4  5  2  0
  5  6  1  0
  6  7  1  0
  7  8  2  0
  7  9  1  0
  9 10  2  0
 10 11  1  0
 11 12  2  0
 12 13  1  0
 13 14  2  0
  2 15  1  0
 15 16  1  0
 16 17  2  0
 17 18  1  0
 18 19  1  0
 19 20  1  0
 20 21  1  0
 21 22  1  0
 22 23  1  0
 23 24  1  0
 24 25  1  0
 25 26  1  0
 26 27  1  0
 27 28  1  0
 28 29  2  0
 29 30  1  0
 30 31  2  0
 31 32  1  0
 32 33  1  0
 31 34  1  0
 34 35  2  0
 27 36  1  0
 36 37  1  0
 37 38  1  0
 38 39  2  0
 38 40  1  0
 40 41  1  0
 41 42  1  0
 42 43  2  0
 43 44  1  0
 44 45  2  0
 37 46  1  0
 14  4  1  0
 19 15  2  0
 46 25  1  0
 14  9  1  0
 35 28  1  0
 45 41  1  0
  3 47  1  0
  5 48  1  0
  6 49  1  0
 10 50  1  0
 11 51  1  0
 12 52  1  0
 13 53  1  0
 17 54  1  0
 20 55  1  0
 20 56  1  0
 21 57  1  0
 22 58  1  0
 22 59  1  0
 23 60  1  0
 23 61  1  0
 24 62  1  0
 25 63  1  0
 26 64  1  0
 26 65  1  0
 27 66  1  0
 29 67  1  0
 30 68  1  0
 32 69  1  0
 32 70  1  0
 33 71  1  0
 34 72  1  0
 35 73  1  0
 36 74  1  0
 36 75  1  0
 40 76  1  0
 40 77  1  0
 42 78  1  0
 45 79  1  0
 46 80  1  0
 46 81  1  0
M  END
>  <Energy>  (370) 
186.76700127962928

>  <compound_id>  (370) 
4078

>  <target_id>  (370) 
1

>  <reference_id>  (370) 
142

>  <inspiration_ids>  (370) 
[142, 144]

>  <energy_score>  (370) 
-37.54175701430188

>  <distance_score>  (370) 
1.5616710824831084

>  <path>  (370) 
/opt/xchem-fragalysis-2/maxwin/BulkDock/SCRATCH/505735/C4078-P142/C4078-P142.minimised.mol

>  <scratch_subdir>  (370) 
/opt/xchem-fragalysis-2/maxwin/BulkDock/SCRATCH/505735/C4078-P142

>  <fragmenstein_runtime>  (370) 
44.211509466171265

>  <fragmenstein_outcome>  (370) 
too moved

>  <fragmenstein_mode>  (370) 
expansion

>  <fragmenstein_error>  (370) 


$$$$
C4078-P144
     RDKit          3D

 81 86  0  0  0  0  0  0  0  0999 V2000
    3.2698   -3.1508   34.1339 O   0  0  0  0  0  0  0  0  0  0  0  0
    3.6523   -4.1717   34.6287 C   0  0  0  0  0  0  0  0  0  0  0  0
    3.1102   -4.9533   35.7084 N   0  0  0  0  0  0  0  0  0  0  0  0
    2.0512   -4.7168   36.5469 C   0  0  0  0  0  0  0  0  0  0  0  0
    1.3474   -3.5733   36.4787 C   0  0  0  0  0  0  0  0  0  0  0  0
    0.2803   -3.3109   37.2903 N   0  0  0  0  0  0  0  0  0  0  0  0
   -0.1835   -4.1598   38.2625 C   0  0  0  0  0  0  0  0  0  0  0  0
   -1.1325   -3.8507   38.9711 O   0  0  0  0  0  0  0  0  0  0  0  0
    0.5355   -5.4524   38.3965 C   0  0  0  0  0  0  0  0  0  0  0  0
    0.0873   -6.3719   39.3542 C   0  0  0  0  0  0  0  0  0  0  0  0
    0.7368   -7.5927   39.4967 C   0  0  0  0  0  0  0  0  0  0  0  0
    1.8340   -7.8858   38.6920 C   0  0  0  0  0  0  0  0  0  0  0  0
    2.2847   -6.9658   37.7354 C   0  0  0  0  0  0  0  0  0  0  0  0
    1.6409   -5.7287   37.5627 C   0  0  0  0  0  0  0  0  0  0  0  0
    4.8400   -4.8540   34.0968 C   0  0  0  0  0  0  0  0  0  0  0  0
    5.3304   -6.0438   34.6278 N   0  0  0  0  0  0  0  0  0  0  0  0
    6.3777   -6.3039   33.8763 C   0  0  0  0  0  0  0  0  0  0  0  0
    6.6194   -5.4049   32.8842 O   0  0  0  0  0  0  0  0  0  0  0  0
    5.6278   -4.4700   33.0280 C   0  0  0  0  0  0  0  0  0  0  0  0
    5.6258   -3.3210   32.0909 C   0  0  0  0  0  0  0  0  0  0  0  0
    4.4837   -3.3645   31.1744 N   0  0  0  0  0  0  0  0  0  0  0  0
    4.7627   -4.1164   29.9476 C   0  0  0  0  0  0  0  0  0  0  0  0
    3.4840   -4.3968   29.1162 C   0  0  0  0  0  0  0  0  0  0  0  0
    2.8521   -3.2349   28.4896 N   0  0  0  0  0  0  0  0  0  0  0  0
    1.9479   -2.4484   29.3410 C   0  0  0  0  0  0  0  0  0  0  0  0
    1.6331   -1.1825   28.5654 C   0  0  0  0  0  0  0  0  0  0  0  0
    0.5337   -0.4401   29.3037 C   0  0  0  0  0  0  0  0  0  0  0  0
   -0.0415    0.6179   28.3846 C   0  0  0  0  0  0  0  0  0  0  0  0
    0.5071    1.9072   28.3773 C   0  0  0  0  0  0  0  0  0  0  0  0
    0.0065    2.8914   27.5185 C   0  0  0  0  0  0  0  0  0  0  0  0
   -1.0504    2.6037   26.6510 C   0  0  0  0  0  0  0  0  0  0  0  0
   -1.6385    3.6440   25.7459 C   0  0  0  0  0  0  0  0  0  0  0  0
   -1.4490    3.2276   24.3987 O   0  0  0  0  0  0  0  0  0  0  0  0
   -1.5726    1.3108   26.6343 C   0  0  0  0  0  0  0  0  0  0  0  0
   -1.0667    0.3263   27.4773 C   0  0  0  0  0  0  0  0  0  0  0  0
   -0.5174   -1.4451   29.8224 C   0  0  0  0  0  0  0  0  0  0  0  0
   -0.1212   -2.4024   30.9143 N   0  0  0  0  0  0  0  0  0  0  0  0
   -0.8999   -3.3462   31.6543 C   0  0  0  0  0  0  0  0  0  0  0  0
   -2.0503   -3.6789   31.5309 O   0  0  0  0  0  0  0  0  0  0  0  0
   -0.0380   -4.0197   32.7212 C   0  0  0  0  0  0  0  0  0  0  0  0
   -0.2707   -5.4514   32.7586 N   0  0  0  0  0  0  0  0  0  0  0  0
   -0.5043   -6.2117   33.8615 C   0  0  0  0  0  0  0  0  0  0  0  0
   -0.6469   -7.4666   33.5004 N   0  0  0  0  0  0  0  0  0  0  0  0
   -0.5520   -7.5241   32.1302 N   0  0  0  0  0  0  0  0  0  0  0  0
   -0.3174   -6.3081   31.7009 C   0  0  0  0  0  0  0  0  0  0  0  0
    0.5880   -3.1038   29.7367 C   0  0  0  0  0  0  0  0  0  0  0  0
    3.6545   -5.8071   35.8047 H   0  0  0  0  0  0  0  0  0  0  0  0
    1.5789   -2.7759   35.7805 H   0  0  0  0  0  0  0  0  0  0  0  0
   -0.2158   -2.4298   37.2160 H   0  0  0  0  0  0  0  0  0  0  0  0
   -0.7754   -6.1386   39.9761 H   0  0  0  0  0  0  0  0  0  0  0  0
    0.3799   -8.3221   40.2197 H   0  0  0  0  0  0  0  0  0  0  0  0
    2.3300   -8.8479   38.7952 H   0  0  0  0  0  0  0  0  0  0  0  0
    3.1372   -7.2576   37.1310 H   0  0  0  0  0  0  0  0  0  0  0  0
    7.0595   -7.1406   33.9454 H   0  0  0  0  0  0  0  0  0  0  0  0
    6.5743   -3.2472   31.5455 H   0  0  0  0  0  0  0  0  0  0  0  0
    5.5510   -2.4035   32.6875 H   0  0  0  0  0  0  0  0  0  0  0  0
    4.2970   -2.4024   30.8897 H   0  0  0  0  0  0  0  0  0  0  0  0
    5.2176   -5.0831   30.1920 H   0  0  0  0  0  0  0  0  0  0  0  0
    5.4862   -3.5695   29.3304 H   0  0  0  0  0  0  0  0  0  0  0  0
    2.7560   -4.9692   29.6954 H   0  0  0  0  0  0  0  0  0  0  0  0
    3.7932   -5.0630   28.3003 H   0  0  0  0  0  0  0  0  0  0  0  0
    2.3400   -3.5381   27.6602 H   0  0  0  0  0  0  0  0  0  0  0  0
    2.4503   -2.1444   30.2611 H   0  0  0  0  0  0  0  0  0  0  0  0
    1.2988   -1.4369   27.5518 H   0  0  0  0  0  0  0  0  0  0  0  0
    2.5247   -0.5522   28.4512 H   0  0  0  0  0  0  0  0  0  0  0  0
    0.9671    0.0552   30.1841 H   0  0  0  0  0  0  0  0  0  0  0  0
    1.3297    2.1623   29.0415 H   0  0  0  0  0  0  0  0  0  0  0  0
    0.4365    3.8907   27.5425 H   0  0  0  0  0  0  0  0  0  0  0  0
   -1.1619    4.6197   25.8812 H   0  0  0  0  0  0  0  0  0  0  0  0
   -2.7093    3.7432   25.9421 H   0  0  0  0  0  0  0  0  0  0  0  0
   -2.0457    3.7818   23.8648 H   0  0  0  0  0  0  0  0  0  0  0  0
   -2.3737    1.0597   25.9423 H   0  0  0  0  0  0  0  0  0  0  0  0
   -1.4853   -0.6721   27.3753 H   0  0  0  0  0  0  0  0  0  0  0  0
   -1.2529   -0.8203   30.3579 H   0  0  0  0  0  0  0  0  0  0  0  0
   -1.1814   -1.9007   29.0695 H   0  0  0  0  0  0  0  0  0  0  0  0
   -0.3005   -3.5962   33.6957 H   0  0  0  0  0  0  0  0  0  0  0  0
    1.0313   -3.8745   32.5424 H   0  0  0  0  0  0  0  0  0  0  0  0
   -0.5665   -5.8254   34.8696 H   0  0  0  0  0  0  0  0  0  0  0  0
   -0.1973   -6.0206   30.6675 H   0  0  0  0  0  0  0  0  0  0  0  0
   -0.0499   -3.4198   28.8927 H   0  0  0  0  0  0  0  0  0  0  0  0
    0.8678   -4.0757   30.1594 H   0  0  0  0  0  0  0  0  0  0  0  0
  1  2  2  0
  2  3  1  0
  3  4  1  0
  4  5  2  0
  5  6  1  0
  6  7  1  0
  7  8  2  0
  7  9  1  0
  9 10  2  0
 10 11  1  0
 11 12  2  0
 12 13  1  0
 13 14  2  0
  2 15  1  0
 15 16  1  0
 16 17  2  0
 17 18  1  0
 18 19  1  0
 19 20  1  0
 20 21  1  0
 21 22  1  0
 22 23  1  0
 23 24  1  0
 24 25  1  0
 25 26  1  0
 26 27  1  0
 27 28  1  0
 28 29  2  0
 29 30  1  0
 30 31  2  0
 31 32  1  0
 32 33  1  0
 31 34  1  0
 34 35  2  0
 27 36  1  0
 36 37  1  0
 37 38  1  0
 38 39  2  0
 38 40  1  0
 40 41  1  0
 41 42  1  0
 42 43  2  0
 43 44  1  0
 44 45  2  0
 37 46  1  0
 14  4  1  0
 19 15  2  0
 46 25  1  0
 14  9  1  0
 35 28  1  0
 45 41  1  0
  3 47  1  0
  5 48  1  0
  6 49  1  0
 10 50  1  0
 11 51  1  0
 12 52  1  0
 13 53  1  0
 17 54  1  0
 20 55  1  0
 20 56  1  0
 21 57  1  0
 22 58  1  0
 22 59  1  0
 23 60  1  0
 23 61  1  0
 24 62  1  0
 25 63  1  0
 26 64  1  0
 26 65  1  0
 27 66  1  0
 29 67  1  0
 30 68  1  0
 32 69  1  0
 32 70  1  0
 33 71  1  0
 34 72  1  0
 35 73  1  0
 36 74  1  0
 36 75  1  0
 40 76  1  0
 40 77  1  0
 42 78  1  0
 45 79  1  0
 46 80  1  0
 46 81  1  0
M  END
>  <Energy>  (371) 
185.86519868619106

>  <compound_id>  (371) 
4078

>  <target_id>  (371) 
1

>  <reference_id>  (371) 
144

>  <inspiration_ids>  (371) 
[142, 144]

>  <energy_score>  (371) 
-38.44355960774044

>  <distance_score>  (371) 
1.6514739899279816

>  <path>  (371) 
/opt/xchem-fragalysis-2/maxwin/BulkDock/SCRATCH/505735/C4078-P144/C4078-P144.minimised.mol

>  <scratch_subdir>  (371) 
/opt/xchem-fragalysis-2/maxwin/BulkDock/SCRATCH/505735/C4078-P144

>  <fragmenstein_runtime>  (371) 
46.34139013290405

>  <fragmenstein_outcome>  (371) 
too moved

>  <fragmenstein_mode>  (371) 
expansion

>  <fragmenstein_error>  (371) 


$$$$
C4080-P142
     RDKit          3D

 58 62  0  0  0  0  0  0  0  0999 V2000
    1.2955   -4.5685   32.2946 O   0  0  0  0  0  0  0  0  0  0  0  0
    0.4971   -4.9610   33.0575 C   0  0  0  0  0  0  0  0  0  0  0  0
   -0.4880   -6.0560   32.9299 N   0  0  0  0  0  0  0  0  0  0  0  0
   -0.6794   -6.9578   31.9449 C   0  0  0  0  0  0  0  0  0  0  0  0
   -1.4939   -8.0884   31.9725 C   0  0  0  0  0  0  0  0  0  0  0  0
   -1.3409   -8.8212   30.8736 N   0  0  0  0  0  0  0  0  0  0  0  0
   -0.3896   -8.1812   30.1847 N   0  0  0  0  0  0  0  0  0  0  0  0
   -0.0165   -7.0054   30.7484 C   0  0  0  0  0  0  0  0  0  0  0  0
    0.2454   -4.5699   34.4738 N   0  0  0  0  0  0  0  0  0  0  0  0
    0.9263   -3.7194   35.2996 C   0  0  0  0  0  0  0  0  0  0  0  0
    1.7447   -2.7088   34.9160 C   0  0  0  0  0  0  0  0  0  0  0  0
    1.8011   -2.1429   33.5199 C   0  0  0  0  0  0  0  0  0  0  0  0
    2.8404   -2.1100   32.9172 O   0  0  0  0  0  0  0  0  0  0  0  0
    0.5028   -1.6479   33.1681 N   0  0  0  0  0  0  0  0  0  0  0  0
    0.3347   -0.2267   33.6659 C   0  0  0  0  0  0  0  0  0  0  0  0
    1.4350    0.7676   33.2898 C   0  0  0  0  0  0  0  0  0  0  0  0
    1.2456    1.1576   31.8501 C   0  0  0  0  0  0  0  0  0  0  0  0
    0.8632   -0.0610   31.0022 C   0  0  0  0  0  0  0  0  0  0  0  0
    0.1335    0.3646   29.7125 C   0  0  0  0  0  0  0  0  0  0  0  0
    0.2012    1.6843   29.2272 C   0  0  0  0  0  0  0  0  0  0  0  0
   -0.5975    2.1197   28.1656 C   0  0  0  0  0  0  0  0  0  0  0  0
   -1.4517    1.2355   27.5107 C   0  0  0  0  0  0  0  0  0  0  0  0
   -2.4264    1.7322   26.4775 C   0  0  0  0  0  0  0  0  0  0  0  0
   -1.7955    2.6259   25.5670 O   0  0  0  0  0  0  0  0  0  0  0  0
   -1.4344   -0.1083   27.8993 C   0  0  0  0  0  0  0  0  0  0  0  0
   -0.6485   -0.5394   28.9769 C   0  0  0  0  0  0  0  0  0  0  0  0
   -0.0054   -1.0258   31.8782 C   0  0  0  0  0  0  0  0  0  0  0  0
    2.5384   -2.0167   35.9345 C   0  0  0  0  0  0  0  0  0  0  0  0
    2.4242   -2.2992   37.2437 C   0  0  0  0  0  0  0  0  0  0  0  0
    1.5220   -3.3063   37.6603 C   0  0  0  0  0  0  0  0  0  0  0  0
    1.2066   -3.7773   38.8458 N   0  0  0  0  0  0  0  0  0  0  0  0
    0.3066   -4.7998   38.6647 N   0  0  0  0  0  0  0  0  0  0  0  0
    0.0981   -4.9255   37.3737 C   0  0  0  0  0  0  0  0  0  0  0  0
    0.8201   -3.9849   36.6803 N   0  0  0  0  0  0  0  0  0  0  0  0
   -1.0730   -6.0709   33.7414 H   0  0  0  0  0  0  0  0  0  0  0  0
   -2.1556   -8.4365   32.7512 H   0  0  0  0  0  0  0  0  0  0  0  0
   -0.0429   -8.6365   29.3488 H   0  0  0  0  0  0  0  0  0  0  0  0
    0.7171   -6.3500   30.3007 H   0  0  0  0  0  0  0  0  0  0  0  0
   -0.5690   -5.0467   34.8097 H   0  0  0  0  0  0  0  0  0  0  0  0
   -0.6871    0.1851   33.5910 H   0  0  0  0  0  0  0  0  0  0  0  0
    0.4288   -0.3311   34.7579 H   0  0  0  0  0  0  0  0  0  0  0  0
    2.4372    0.3593   33.4487 H   0  0  0  0  0  0  0  0  0  0  0  0
    1.3619    1.6593   33.9236 H   0  0  0  0  0  0  0  0  0  0  0  0
    2.1457    1.6487   31.4624 H   0  0  0  0  0  0  0  0  0  0  0  0
    0.4405    1.9050   31.8361 H   0  0  0  0  0  0  0  0  0  0  0  0
    1.7812   -0.5867   30.7088 H   0  0  0  0  0  0  0  0  0  0  0  0
    0.8432    2.4312   29.6872 H   0  0  0  0  0  0  0  0  0  0  0  0
   -0.5690    3.1661   27.8657 H   0  0  0  0  0  0  0  0  0  0  0  0
   -2.8387    0.8996   25.9035 H   0  0  0  0  0  0  0  0  0  0  0  0
   -3.2490    2.2560   26.9750 H   0  0  0  0  0  0  0  0  0  0  0  0
   -2.5227    3.0364   25.0644 H   0  0  0  0  0  0  0  0  0  0  0  0
   -2.0487   -0.8387   27.3723 H   0  0  0  0  0  0  0  0  0  0  0  0
   -0.6874   -1.5961   29.2285 H   0  0  0  0  0  0  0  0  0  0  0  0
   -1.0680   -0.7303   31.9403 H   0  0  0  0  0  0  0  0  0  0  0  0
   -0.0743   -1.9415   31.2710 H   0  0  0  0  0  0  0  0  0  0  0  0
    3.2386   -1.2574   35.5936 H   0  0  0  0  0  0  0  0  0  0  0  0
    3.0154   -1.7835   37.9927 H   0  0  0  0  0  0  0  0  0  0  0  0
   -0.5475   -5.6600   36.9183 H   0  0  0  0  0  0  0  0  0  0  0  0
  1  2  2  0
  2  3  1  0
  3  4  1  0
  4  5  1  0
  5  6  2  0
  6  7  1  0
  7  8  1  0
  2  9  1  0
  9 10  1  0
 10 11  2  0
 11 12  1  0
 12 13  2  0
 12 14  1  0
 14 15  1  0
 15 16  1  0
 16 17  1  0
 17 18  1  0
 18 19  1  0
 19 20  2  0
 20 21  1  0
 21 22  2  0
 22 23  1  0
 23 24  1  0
 22 25  1  0
 25 26  2  0
 18 27  1  0
 11 28  1  0
 28 29  2  0
 29 30  1  0
 30 31  2  0
 31 32  1  0
 32 33  2  0
 33 34  1  0
  8  4  2  0
 34 10  1  0
 27 14  1  0
 34 30  1  0
 26 19  1  0
  3 35  1  0
  5 36  1  0
  7 37  1  0
  8 38  1  0
  9 39  1  0
 15 40  1  0
 15 41  1  0
 16 42  1  0
 16 43  1  0
 17 44  1  0
 17 45  1  0
 18 46  1  0
 20 47  1  0
 21 48  1  0
 23 49  1  0
 23 50  1  0
 24 51  1  0
 25 52  1  0
 26 53  1  0
 27 54  1  0
 27 55  1  0
 28 56  1  0
 29 57  1  0
 33 58  1  0
M  END
>  <Energy>  (372) 
137.1920381724554

>  <compound_id>  (372) 
4080

>  <target_id>  (372) 
1

>  <reference_id>  (372) 
142

>  <inspiration_ids>  (372) 
[142, 147]

>  <energy_score>  (372) 
-6.969922938822094

>  <distance_score>  (372) 
3.705795207289435

>  <path>  (372) 
/opt/xchem-fragalysis-2/maxwin/BulkDock/SCRATCH/505735/C4080-P142/C4080-P142.minimised.mol

>  <scratch_subdir>  (372) 
/opt/xchem-fragalysis-2/maxwin/BulkDock/SCRATCH/505735/C4080-P142

>  <fragmenstein_runtime>  (372) 
25.050350189208984

>  <fragmenstein_outcome>  (372) 
too moved

>  <fragmenstein_mode>  (372) 
expansion

>  <fragmenstein_error>  (372) 


$$$$
C4080-P147
     RDKit          3D

 58 62  0  0  0  0  0  0  0  0999 V2000
    0.3786   -2.8641   36.4402 O   0  0  0  0  0  0  0  0  0  0  0  0
    0.0297   -2.3971   35.4209 C   0  0  0  0  0  0  0  0  0  0  0  0
   -0.1647   -0.9642   35.0308 N   0  0  0  0  0  0  0  0  0  0  0  0
   -0.0785    0.1796   35.7709 C   0  0  0  0  0  0  0  0  0  0  0  0
   -0.2644    1.5113   35.3513 C   0  0  0  0  0  0  0  0  0  0  0  0
   -0.1170    2.3852   36.3501 N   0  0  0  0  0  0  0  0  0  0  0  0
    0.1740    1.6055   37.4091 N   0  0  0  0  0  0  0  0  0  0  0  0
    0.2075    0.2748   37.1082 C   0  0  0  0  0  0  0  0  0  0  0  0
   -0.3791   -3.0636   34.1413 N   0  0  0  0  0  0  0  0  0  0  0  0
   -0.3731   -4.3911   33.7760 C   0  0  0  0  0  0  0  0  0  0  0  0
   -0.2997   -4.7098   32.4499 C   0  0  0  0  0  0  0  0  0  0  0  0
   -0.2315   -3.7251   31.2758 C   0  0  0  0  0  0  0  0  0  0  0  0
   -0.5335   -4.1524   30.1936 O   0  0  0  0  0  0  0  0  0  0  0  0
    0.1014   -2.4037   31.6887 N   0  0  0  0  0  0  0  0  0  0  0  0
    1.6185   -2.1811   31.5783 C   0  0  0  0  0  0  0  0  0  0  0  0
    2.3108   -2.3937   30.2183 C   0  0  0  0  0  0  0  0  0  0  0  0
    1.8964   -1.3002   29.2561 C   0  0  0  0  0  0  0  0  0  0  0  0
    0.3958   -1.1268   29.4168 C   0  0  0  0  0  0  0  0  0  0  0  0
   -0.1657    0.0929   28.7233 C   0  0  0  0  0  0  0  0  0  0  0  0
   -1.2144   -0.0738   27.8130 C   0  0  0  0  0  0  0  0  0  0  0  0
   -1.8146    1.0262   27.2038 C   0  0  0  0  0  0  0  0  0  0  0  0
   -1.4116    2.3222   27.5158 C   0  0  0  0  0  0  0  0  0  0  0  0
   -2.1258    3.4922   26.9072 C   0  0  0  0  0  0  0  0  0  0  0  0
   -1.5315    3.8009   25.6556 O   0  0  0  0  0  0  0  0  0  0  0  0
   -0.3385    2.4952   28.3935 C   0  0  0  0  0  0  0  0  0  0  0  0
    0.2781    1.3922   28.9943 C   0  0  0  0  0  0  0  0  0  0  0  0
    0.0730   -1.0957   30.9303 C   0  0  0  0  0  0  0  0  0  0  0  0
   -0.3452   -6.1293   32.0631 C   0  0  0  0  0  0  0  0  0  0  0  0
   -0.4515   -7.1183   32.9585 C   0  0  0  0  0  0  0  0  0  0  0  0
   -0.4987   -6.8018   34.3299 C   0  0  0  0  0  0  0  0  0  0  0  0
   -0.5717   -7.5729   35.3878 N   0  0  0  0  0  0  0  0  0  0  0  0
   -0.7059   -6.7618   36.4761 N   0  0  0  0  0  0  0  0  0  0  0  0
   -0.7199   -5.5188   36.0507 C   0  0  0  0  0  0  0  0  0  0  0  0
   -0.4934   -5.4591   34.7007 N   0  0  0  0  0  0  0  0  0  0  0  0
   -0.3915   -0.9134   34.0573 H   0  0  0  0  0  0  0  0  0  0  0  0
   -0.5019    1.8869   34.3656 H   0  0  0  0  0  0  0  0  0  0  0  0
    0.3367    2.0490   38.3078 H   0  0  0  0  0  0  0  0  0  0  0  0
    0.4247   -0.4692   37.8624 H   0  0  0  0  0  0  0  0  0  0  0  0
   -0.5398   -2.3631   33.4369 H   0  0  0  0  0  0  0  0  0  0  0  0
    1.9719   -1.2845   32.1156 H   0  0  0  0  0  0  0  0  0  0  0  0
    2.0278   -2.9865   32.2092 H   0  0  0  0  0  0  0  0  0  0  0  0
    2.0525   -3.3755   29.8054 H   0  0  0  0  0  0  0  0  0  0  0  0
    3.3989   -2.3807   30.3475 H   0  0  0  0  0  0  0  0  0  0  0  0
    2.1668   -1.5552   28.2261 H   0  0  0  0  0  0  0  0  0  0  0  0
    2.4357   -0.3792   29.5082 H   0  0  0  0  0  0  0  0  0  0  0  0
   -0.0838   -2.0110   28.9783 H   0  0  0  0  0  0  0  0  0  0  0  0
   -1.5818   -1.0671   27.5551 H   0  0  0  0  0  0  0  0  0  0  0  0
   -2.6120    0.8650   26.4832 H   0  0  0  0  0  0  0  0  0  0  0  0
   -3.1847    3.2585   26.7530 H   0  0  0  0  0  0  0  0  0  0  0  0
   -2.0624    4.3684   27.5611 H   0  0  0  0  0  0  0  0  0  0  0  0
   -2.0988    4.4912   25.2672 H   0  0  0  0  0  0  0  0  0  0  0  0
    0.0105    3.4994   28.6270 H   0  0  0  0  0  0  0  0  0  0  0  0
    1.0972    1.5733   29.6847 H   0  0  0  0  0  0  0  0  0  0  0  0
    0.4827   -0.2335   31.4842 H   0  0  0  0  0  0  0  0  0  0  0  0
   -1.0076   -0.8789   30.9745 H   0  0  0  0  0  0  0  0  0  0  0  0
   -0.3277   -6.3721   31.0029 H   0  0  0  0  0  0  0  0  0  0  0  0
   -0.5403   -8.1540   32.6562 H   0  0  0  0  0  0  0  0  0  0  0  0
   -0.9061   -4.6648   36.6803 H   0  0  0  0  0  0  0  0  0  0  0  0
  1  2  2  0
  2  3  1  0
  3  4  1  0
  4  5  1  0
  5  6  2  0
  6  7  1  0
  7  8  1  0
  2  9  1  0
  9 10  1  0
 10 11  2  0
 11 12  1  0
 12 13  2  0
 12 14  1  0
 14 15  1  0
 15 16  1  0
 16 17  1  0
 17 18  1  0
 18 19  1  0
 19 20  2  0
 20 21  1  0
 21 22  2  0
 22 23  1  0
 23 24  1  0
 22 25  1  0
 25 26  2  0
 18 27  1  0
 11 28  1  0
 28 29  2  0
 29 30  1  0
 30 31  2  0
 31 32  1  0
 32 33  2  0
 33 34  1  0
  8  4  2  0
 34 10  1  0
 27 14  1  0
 34 30  1  0
 26 19  1  0
  3 35  1  0
  5 36  1  0
  7 37  1  0
  8 38  1  0
  9 39  1  0
 15 40  1  0
 15 41  1  0
 16 42  1  0
 16 43  1  0
 17 44  1  0
 17 45  1  0
 18 46  1  0
 20 47  1  0
 21 48  1  0
 23 49  1  0
 23 50  1  0
 24 51  1  0
 25 52  1  0
 26 53  1  0
 27 54  1  0
 27 55  1  0
 28 56  1  0
 29 57  1  0
 33 58  1  0
M  END
>  <Energy>  (373) 
118.24248048389427

>  <compound_id>  (373) 
4080

>  <target_id>  (373) 
1

>  <reference_id>  (373) 
147

>  <inspiration_ids>  (373) 
[142, 147]

>  <energy_score>  (373) 
-25.919480627386065

>  <distance_score>  (373) 
2.68018838598992

>  <path>  (373) 
/opt/xchem-fragalysis-2/maxwin/BulkDock/SCRATCH/505735/C4080-P147/C4080-P147.minimised.mol

>  <scratch_subdir>  (373) 
/opt/xchem-fragalysis-2/maxwin/BulkDock/SCRATCH/505735/C4080-P147

>  <fragmenstein_runtime>  (373) 
28.929314851760864

>  <fragmenstein_outcome>  (373) 
too moved

>  <fragmenstein_mode>  (373) 
expansion

>  <fragmenstein_error>  (373) 


$$$$
C4080-P142
     RDKit          3D

 58 62  0  0  0  0  0  0  0  0999 V2000
    1.8904   -5.5086   37.1123 O   0  0  0  0  0  0  0  0  0  0  0  0
    2.0375   -5.8091   35.9871 C   0  0  0  0  0  0  0  0  0  0  0  0
    2.9794   -6.7987   35.3665 N   0  0  0  0  0  0  0  0  0  0  0  0
    3.8552   -7.6815   35.9437 C   0  0  0  0  0  0  0  0  0  0  0  0
    4.7734   -8.5821   35.3671 C   0  0  0  0  0  0  0  0  0  0  0  0
    5.4404   -9.2953   36.2800 N   0  0  0  0  0  0  0  0  0  0  0  0
    4.9552   -8.8400   37.4483 N   0  0  0  0  0  0  0  0  0  0  0  0
    4.0073   -7.8725   37.2953 C   0  0  0  0  0  0  0  0  0  0  0  0
    1.3070   -5.3351   34.7493 N   0  0  0  0  0  0  0  0  0  0  0  0
    0.3382   -4.3609   34.5915 C   0  0  0  0  0  0  0  0  0  0  0  0
    0.2062   -3.6931   33.4133 C   0  0  0  0  0  0  0  0  0  0  0  0
    1.1016   -3.9703   32.2264 C   0  0  0  0  0  0  0  0  0  0  0  0
    1.3295   -5.0964   31.8703 O   0  0  0  0  0  0  0  0  0  0  0  0
    1.4730   -2.7204   31.6478 N   0  0  0  0  0  0  0  0  0  0  0  0
    2.8026   -2.2542   32.2253 C   0  0  0  0  0  0  0  0  0  0  0  0
    3.1741   -0.7731   32.1600 C   0  0  0  0  0  0  0  0  0  0  0  0
    2.2953   -0.0410   31.1834 C   0  0  0  0  0  0  0  0  0  0  0  0
    2.1344   -0.8955   29.9244 C   0  0  0  0  0  0  0  0  0  0  0  0
    0.9705   -0.3360   29.1125 C   0  0  0  0  0  0  0  0  0  0  0  0
    1.0761    0.9926   28.6498 C   0  0  0  0  0  0  0  0  0  0  0  0
    0.0507    1.6079   27.9299 C   0  0  0  0  0  0  0  0  0  0  0  0
   -1.1056    0.9019   27.6032 C   0  0  0  0  0  0  0  0  0  0  0  0
   -2.2227    1.5604   26.8333 C   0  0  0  0  0  0  0  0  0  0  0  0
   -1.7194    2.5205   25.9071 O   0  0  0  0  0  0  0  0  0  0  0  0
   -1.2176   -0.4239   28.0491 C   0  0  0  0  0  0  0  0  0  0  0  0
   -0.1981   -1.0349   28.8004 C   0  0  0  0  0  0  0  0  0  0  0  0
    2.1749   -2.4031   30.3415 C   0  0  0  0  0  0  0  0  0  0  0  0
   -0.7760   -2.6058   33.2984 C   0  0  0  0  0  0  0  0  0  0  0  0
   -1.4968   -2.1849   34.3478 C   0  0  0  0  0  0  0  0  0  0  0  0
   -1.3654   -2.8559   35.5840 C   0  0  0  0  0  0  0  0  0  0  0  0
   -1.9284   -2.6363   36.7523 N   0  0  0  0  0  0  0  0  0  0  0  0
   -1.5509   -3.6530   37.5881 N   0  0  0  0  0  0  0  0  0  0  0  0
   -0.7685   -4.4608   36.9042 C   0  0  0  0  0  0  0  0  0  0  0  0
   -0.5123   -3.9551   35.6534 N   0  0  0  0  0  0  0  0  0  0  0  0
    2.9018   -6.7500   34.3707 H   0  0  0  0  0  0  0  0  0  0  0  0
    4.9965   -8.7657   34.3262 H   0  0  0  0  0  0  0  0  0  0  0  0
    5.3127   -9.2363   38.3120 H   0  0  0  0  0  0  0  0  0  0  0  0
    3.5233   -7.4213   38.1510 H   0  0  0  0  0  0  0  0  0  0  0  0
    1.7401   -5.7335   33.9326 H   0  0  0  0  0  0  0  0  0  0  0  0
    2.6902   -2.4404   33.3068 H   0  0  0  0  0  0  0  0  0  0  0  0
    3.6450   -2.9386   32.0167 H   0  0  0  0  0  0  0  0  0  0  0  0
    4.2269   -0.6841   31.8648 H   0  0  0  0  0  0  0  0  0  0  0  0
    3.0924   -0.3098   33.1505 H   0  0  0  0  0  0  0  0  0  0  0  0
    2.7228    0.9435   30.9616 H   0  0  0  0  0  0  0  0  0  0  0  0
    1.3180    0.1399   31.6524 H   0  0  0  0  0  0  0  0  0  0  0  0
    3.0216   -0.7582   29.2883 H   0  0  0  0  0  0  0  0  0  0  0  0
    1.9707    1.5783   28.8521 H   0  0  0  0  0  0  0  0  0  0  0  0
    0.1668    2.6404   27.6057 H   0  0  0  0  0  0  0  0  0  0  0  0
   -2.7890    0.8178   26.2646 H   0  0  0  0  0  0  0  0  0  0  0  0
   -2.8886    2.0732   27.5316 H   0  0  0  0  0  0  0  0  0  0  0  0
   -2.5029    2.9894   25.5661 H   0  0  0  0  0  0  0  0  0  0  0  0
   -2.0951   -1.0138   27.7853 H   0  0  0  0  0  0  0  0  0  0  0  0
   -0.3518   -2.0637   29.1126 H   0  0  0  0  0  0  0  0  0  0  0  0
    1.5813   -2.9645   29.6060 H   0  0  0  0  0  0  0  0  0  0  0  0
    3.1576   -2.8804   30.1770 H   0  0  0  0  0  0  0  0  0  0  0  0
   -0.8984   -2.1203   32.3333 H   0  0  0  0  0  0  0  0  0  0  0  0
   -2.2126   -1.3761   34.2670 H   0  0  0  0  0  0  0  0  0  0  0  0
   -0.3893   -5.4036   37.2653 H   0  0  0  0  0  0  0  0  0  0  0  0
  1  2  2  0
  2  3  1  0
  3  4  1  0
  4  5  1  0
  5  6  2  0
  6  7  1  0
  7  8  1  0
  2  9  1  0
  9 10  1  0
 10 11  2  0
 11 12  1  0
 12 13  2  0
 12 14  1  0
 14 15  1  0
 15 16  1  0
 16 17  1  0
 17 18  1  0
 18 19  1  0
 19 20  2  0
 20 21  1  0
 21 22  2  0
 22 23  1  0
 23 24  1  0
 22 25  1  0
 25 26  2  0
 18 27  1  0
 11 28  1  0
 28 29  2  0
 29 30  1  0
 30 31  2  0
 31 32  1  0
 32 33  2  0
 33 34  1  0
  8  4  2  0
 34 10  1  0
 27 14  1  0
 34 30  1  0
 26 19  1  0
  3 35  1  0
  5 36  1  0
  7 37  1  0
  8 38  1  0
  9 39  1  0
 15 40  1  0
 15 41  1  0
 16 42  1  0
 16 43  1  0
 17 44  1  0
 17 45  1  0
 18 46  1  0
 20 47  1  0
 21 48  1  0
 23 49  1  0
 23 50  1  0
 24 51  1  0
 25 52  1  0
 26 53  1  0
 27 54  1  0
 27 55  1  0
 28 56  1  0
 29 57  1  0
 33 58  1  0
M  END
>  <Energy>  (374) 
121.38409573101916

>  <compound_id>  (374) 
4080

>  <target_id>  (374) 
1

>  <reference_id>  (374) 
142

>  <inspiration_ids>  (374) 
[142, 148]

>  <energy_score>  (374) 
4.389414247538468

>  <distance_score>  (374) 
2.9778648981382374

>  <path>  (374) 
/opt/xchem-fragalysis-2/maxwin/BulkDock/SCRATCH/505735/C4080-P142/C4080-P142.minimised.mol

>  <scratch_subdir>  (374) 
/opt/xchem-fragalysis-2/maxwin/BulkDock/SCRATCH/505735/C4080-P142

>  <fragmenstein_runtime>  (374) 
32.431480884552

>  <fragmenstein_outcome>  (374) 
too moved

>  <fragmenstein_mode>  (374) 
expansion

>  <fragmenstein_error>  (374) 


$$$$
C4080-P148
     RDKit          3D

 58 62  0  0  0  0  0  0  0  0999 V2000
    2.2783   -7.6818   35.9377 O   0  0  0  0  0  0  0  0  0  0  0  0
    2.6504   -6.8292   35.2276 C   0  0  0  0  0  0  0  0  0  0  0  0
    3.9777   -6.1622   35.1456 N   0  0  0  0  0  0  0  0  0  0  0  0
    5.1456   -6.4186   35.8069 C   0  0  0  0  0  0  0  0  0  0  0  0
    6.4068   -5.8082   35.7146 C   0  0  0  0  0  0  0  0  0  0  0  0
    7.3122   -6.3883   36.5093 N   0  0  0  0  0  0  0  0  0  0  0  0
    6.6191   -7.3612   37.1254 N   0  0  0  0  0  0  0  0  0  0  0  0
    5.3159   -7.4201   36.7329 C   0  0  0  0  0  0  0  0  0  0  0  0
    1.9461   -6.1638   34.0655 N   0  0  0  0  0  0  0  0  0  0  0  0
    0.7352   -6.4371   33.4777 C   0  0  0  0  0  0  0  0  0  0  0  0
    0.4516   -6.1373   32.1892 C   0  0  0  0  0  0  0  0  0  0  0  0
    0.9887   -4.9034   31.5219 C   0  0  0  0  0  0  0  0  0  0  0  0
    2.1565   -4.6317   31.4642 O   0  0  0  0  0  0  0  0  0  0  0  0
   -0.1638   -4.1948   31.0315 N   0  0  0  0  0  0  0  0  0  0  0  0
   -0.6976   -3.2561   32.1052 C   0  0  0  0  0  0  0  0  0  0  0  0
    0.2914   -2.2746   32.7360 C   0  0  0  0  0  0  0  0  0  0  0  0
    0.4590   -1.1151   31.7946 C   0  0  0  0  0  0  0  0  0  0  0  0
    0.5472   -1.6172   30.3524 C   0  0  0  0  0  0  0  0  0  0  0  0
    0.0624   -0.5083   29.3936 C   0  0  0  0  0  0  0  0  0  0  0  0
    0.4023    0.8400   29.6116 C   0  0  0  0  0  0  0  0  0  0  0  0
   -0.1536    1.8717   28.8388 C   0  0  0  0  0  0  0  0  0  0  0  0
   -1.0485    1.5846   27.8061 C   0  0  0  0  0  0  0  0  0  0  0  0
   -1.6783    2.6697   26.9760 C   0  0  0  0  0  0  0  0  0  0  0  0
   -0.8806    2.8835   25.8167 O   0  0  0  0  0  0  0  0  0  0  0  0
   -1.3113    0.2477   27.5178 C   0  0  0  0  0  0  0  0  0  0  0  0
   -0.7649   -0.7789   28.2937 C   0  0  0  0  0  0  0  0  0  0  0  0
   -0.2698   -2.9394   30.1876 C   0  0  0  0  0  0  0  0  0  0  0  0
   -0.6028   -6.8971   31.5075 C   0  0  0  0  0  0  0  0  0  0  0  0
   -1.5084   -7.6090   32.1928 C   0  0  0  0  0  0  0  0  0  0  0  0
   -1.4493   -7.5907   33.5981 C   0  0  0  0  0  0  0  0  0  0  0  0
   -2.3297   -7.9234   34.5110 N   0  0  0  0  0  0  0  0  0  0  0  0
   -1.7515   -7.7094   35.7237 N   0  0  0  0  0  0  0  0  0  0  0  0
   -0.5446   -7.2314   35.5296 C   0  0  0  0  0  0  0  0  0  0  0  0
   -0.2923   -7.1044   34.1894 N   0  0  0  0  0  0  0  0  0  0  0  0
    3.9324   -5.4141   34.4790 H   0  0  0  0  0  0  0  0  0  0  0  0
    6.7172   -4.9749   35.0984 H   0  0  0  0  0  0  0  0  0  0  0  0
    7.0998   -7.9456   37.8025 H   0  0  0  0  0  0  0  0  0  0  0  0
    4.6404   -8.1584   37.1432 H   0  0  0  0  0  0  0  0  0  0  0  0
    2.5815   -5.5228   33.6124 H   0  0  0  0  0  0  0  0  0  0  0  0
   -1.6882   -2.8191   31.8878 H   0  0  0  0  0  0  0  0  0  0  0  0
   -0.9517   -3.9419   32.9284 H   0  0  0  0  0  0  0  0  0  0  0  0
    1.2573   -2.7403   32.9520 H   0  0  0  0  0  0  0  0  0  0  0  0
   -0.1017   -1.9126   33.6934 H   0  0  0  0  0  0  0  0  0  0  0  0
    1.3413   -0.5251   32.0686 H   0  0  0  0  0  0  0  0  0  0  0  0
   -0.4113   -0.4561   31.9223 H   0  0  0  0  0  0  0  0  0  0  0  0
    1.5971   -1.8350   30.1162 H   0  0  0  0  0  0  0  0  0  0  0  0
    1.0828    1.1191   30.4128 H   0  0  0  0  0  0  0  0  0  0  0  0
    0.0997    2.9058   29.0675 H   0  0  0  0  0  0  0  0  0  0  0  0
   -2.6907    2.3926   26.6639 H   0  0  0  0  0  0  0  0  0  0  0  0
   -1.7480    3.6075   27.5374 H   0  0  0  0  0  0  0  0  0  0  0  0
    0.0391    2.9263   26.1268 H   0  0  0  0  0  0  0  0  0  0  0  0
   -1.9478   -0.0176   26.6749 H   0  0  0  0  0  0  0  0  0  0  0  0
   -1.0309   -1.7905   27.9964 H   0  0  0  0  0  0  0  0  0  0  0  0
   -1.3373   -2.7554   29.9720 H   0  0  0  0  0  0  0  0  0  0  0  0
    0.0886   -3.3389   29.2241 H   0  0  0  0  0  0  0  0  0  0  0  0
   -0.6041   -6.8778   30.4214 H   0  0  0  0  0  0  0  0  0  0  0  0
   -2.3073   -8.1714   31.7322 H   0  0  0  0  0  0  0  0  0  0  0  0
    0.1234   -6.9156   36.3158 H   0  0  0  0  0  0  0  0  0  0  0  0
  1  2  2  0
  2  3  1  0
  3  4  1  0
  4  5  1  0
  5  6  2  0
  6  7  1  0
  7  8  1  0
  2  9  1  0
  9 10  1  0
 10 11  2  0
 11 12  1  0
 12 13  2  0
 12 14  1  0
 14 15  1  0
 15 16  1  0
 16 17  1  0
 17 18  1  0
 18 19  1  0
 19 20  2  0
 20 21  1  0
 21 22  2  0
 22 23  1  0
 23 24  1  0
 22 25  1  0
 25 26  2  0
 18 27  1  0
 11 28  1  0
 28 29  2  0
 29 30  1  0
 30 31  2  0
 31 32  1  0
 32 33  2  0
 33 34  1  0
  8  4  2  0
 34 10  1  0
 27 14  1  0
 34 30  1  0
 26 19  1  0
  3 35  1  0
  5 36  1  0
  7 37  1  0
  8 38  1  0
  9 39  1  0
 15 40  1  0
 15 41  1  0
 16 42  1  0
 16 43  1  0
 17 44  1  0
 17 45  1  0
 18 46  1  0
 20 47  1  0
 21 48  1  0
 23 49  1  0
 23 50  1  0
 24 51  1  0
 25 52  1  0
 26 53  1  0
 27 54  1  0
 27 55  1  0
 28 56  1  0
 29 57  1  0
 33 58  1  0
M  END
>  <Energy>  (375) 
136.6014470481048

>  <compound_id>  (375) 
4080

>  <target_id>  (375) 
1

>  <reference_id>  (375) 
148

>  <inspiration_ids>  (375) 
[142, 148]

>  <energy_score>  (375) 
19.60676556462795

>  <distance_score>  (375) 
2.7683553493302493

>  <path>  (375) 
/opt/xchem-fragalysis-2/maxwin/BulkDock/SCRATCH/505735/C4080-P148/C4080-P148.minimised.mol

>  <scratch_subdir>  (375) 
/opt/xchem-fragalysis-2/maxwin/BulkDock/SCRATCH/505735/C4080-P148

>  <fragmenstein_runtime>  (375) 
33.164318561553955

>  <fragmenstein_outcome>  (375) 
too moved

>  <fragmenstein_mode>  (375) 
expansion

>  <fragmenstein_error>  (375) 


$$$$
C4083-P142
     RDKit          3D

 81 86  0  0  0  0  0  0  0  0999 V2000
   -2.5184   -3.5967   32.0712 O   0  0  0  0  0  0  0  0  0  0  0  0
   -1.3416   -3.3610   32.0341 C   0  0  0  0  0  0  0  0  0  0  0  0
   -0.4783   -3.6754   33.2557 C   0  0  0  0  0  0  0  0  0  0  0  0
    0.0608   -5.0153   33.2235 N   0  0  0  0  0  0  0  0  0  0  0  0
    1.3738   -5.3530   33.3260 C   0  0  0  0  0  0  0  0  0  0  0  0
    1.5029   -6.6486   33.1668 N   0  0  0  0  0  0  0  0  0  0  0  0
    0.2481   -7.1723   32.9686 N   0  0  0  0  0  0  0  0  0  0  0  0
   -0.6109   -6.1836   33.0470 C   0  0  0  0  0  0  0  0  0  0  0  0
   -0.5590   -2.7362   31.0303 N   0  0  0  0  0  0  0  0  0  0  0  0
   -0.0185   -3.7743   30.0667 C   0  0  0  0  0  0  0  0  0  0  0  0
    1.4040   -3.4344   29.6252 C   0  0  0  0  0  0  0  0  0  0  0  0
    1.4942   -1.9608   29.2186 C   0  0  0  0  0  0  0  0  0  0  0  0
    2.5468   -1.7906   28.2046 N   0  0  0  0  0  0  0  0  0  0  0  0
    3.8833   -1.9995   28.7595 C   0  0  0  0  0  0  0  0  0  0  0  0
    4.9357   -1.8740   27.6564 C   0  0  0  0  0  0  0  0  0  0  0  0
    6.3426   -2.3109   28.0947 C   0  0  0  0  0  0  0  0  0  0  0  0
    6.9180   -1.4931   29.6378 S   0  0  0  0  0  0  0  0  0  0  0  0
    7.5072   -1.8196   26.8034 Cl  0  0  0  0  0  0  0  0  0  0  0  0
    6.4154   -3.8781   28.2822 C   0  0  0  0  0  0  0  0  0  0  0  0
    6.1627   -4.3383   29.3628 O   0  0  0  0  0  0  0  0  0  0  0  0
    6.7529   -4.5273   27.0383 N   0  0  0  0  0  0  0  0  0  0  0  0
    6.9873   -5.9336   26.7248 C   0  0  0  0  0  0  0  0  0  0  0  0
    8.5067   -6.2753   26.8395 C   0  0  0  0  0  0  0  0  0  0  0  0
    9.0444   -7.3117   27.4419 N   0  0  0  0  0  0  0  0  0  0  0  0
   10.4022   -7.2820   27.1857 N   0  0  0  0  0  0  0  0  0  0  0  0
   10.6592   -6.2235   26.4428 C   0  0  0  0  0  0  0  0  0  0  0  0
   11.9184   -5.8491   25.8715 C   0  0  0  0  0  0  0  0  0  0  0  0
   12.2273   -4.6871   25.1854 C   0  0  0  0  0  0  0  0  0  0  0  0
   13.5803   -4.6585   24.7332 C   0  0  0  0  0  0  0  0  0  0  0  0
   14.2646   -5.7971   25.0901 C   0  0  0  0  0  0  0  0  0  0  0  0
   13.2793   -6.8900   25.9590 S   0  0  0  0  0  0  0  0  0  0  0  0
    9.4935   -5.5412   26.2479 N   0  0  0  0  0  0  0  0  0  0  0  0
    6.0092   -6.9370   27.3767 C   0  0  0  0  0  0  0  0  0  0  0  0
    5.9101   -7.6440   26.0101 C   0  0  0  0  0  0  0  0  0  0  0  0
    6.3728   -6.3390   25.3588 C   0  0  0  0  0  0  0  0  0  0  0  0
    0.0955   -1.5637   28.7246 C   0  0  0  0  0  0  0  0  0  0  0  0
   -0.2026   -0.1194   28.3741 C   0  0  0  0  0  0  0  0  0  0  0  0
    0.5067    0.9722   28.8791 C   0  0  0  0  0  0  0  0  0  0  0  0
    0.1021    2.2770   28.5734 C   0  0  0  0  0  0  0  0  0  0  0  0
   -1.0136    2.5152   27.7582 C   0  0  0  0  0  0  0  0  0  0  0  0
   -1.5040    3.9147   27.5152 C   0  0  0  0  0  0  0  0  0  0  0  0
   -1.9648    4.0682   26.1799 O   0  0  0  0  0  0  0  0  0  0  0  0
   -1.7233    1.4246   27.2560 C   0  0  0  0  0  0  0  0  0  0  0  0
   -1.3220    0.1280   27.5596 C   0  0  0  0  0  0  0  0  0  0  0  0
   -0.9637   -2.0679   29.7411 C   0  0  0  0  0  0  0  0  0  0  0  0
    0.3515   -2.9630   33.3260 H   0  0  0  0  0  0  0  0  0  0  0  0
   -1.0762   -3.5759   34.1669 H   0  0  0  0  0  0  0  0  0  0  0  0
    2.1750   -4.6478   33.4989 H   0  0  0  0  0  0  0  0  0  0  0  0
   -1.6821   -6.2677   32.9693 H   0  0  0  0  0  0  0  0  0  0  0  0
    0.0863   -4.7076   30.6342 H   0  0  0  0  0  0  0  0  0  0  0  0
   -0.6802   -4.1247   29.2545 H   0  0  0  0  0  0  0  0  0  0  0  0
    1.6767   -4.1070   28.8018 H   0  0  0  0  0  0  0  0  0  0  0  0
    2.1065   -3.6329   30.4446 H   0  0  0  0  0  0  0  0  0  0  0  0
    1.7390   -1.3590   30.1041 H   0  0  0  0  0  0  0  0  0  0  0  0
    2.4694   -0.8603   27.7840 H   0  0  0  0  0  0  0  0  0  0  0  0
    3.9504   -2.9951   29.2060 H   0  0  0  0  0  0  0  0  0  0  0  0
    4.0635   -1.2591   29.5462 H   0  0  0  0  0  0  0  0  0  0  0  0
    4.6263   -2.4830   26.7950 H   0  0  0  0  0  0  0  0  0  0  0  0
    4.9512   -0.8319   27.3073 H   0  0  0  0  0  0  0  0  0  0  0  0
    6.5790   -2.5090   30.4519 H   0  0  0  0  0  0  0  0  0  0  0  0
    6.9862   -3.8161   26.3450 H   0  0  0  0  0  0  0  0  0  0  0  0
   11.5289   -3.8775   25.0109 H   0  0  0  0  0  0  0  0  0  0  0  0
   14.0273   -3.8392   24.1820 H   0  0  0  0  0  0  0  0  0  0  0  0
   15.2989   -6.0409   24.8884 H   0  0  0  0  0  0  0  0  0  0  0  0
    9.3418   -4.7346   25.6565 H   0  0  0  0  0  0  0  0  0  0  0  0
    5.0567   -6.5006   27.7025 H   0  0  0  0  0  0  0  0  0  0  0  0
    6.4004   -7.5501   28.1935 H   0  0  0  0  0  0  0  0  0  0  0  0
    4.9111   -7.9702   25.7099 H   0  0  0  0  0  0  0  0  0  0  0  0
    6.6170   -8.4718   25.8841 H   0  0  0  0  0  0  0  0  0  0  0  0
    5.5426   -5.6992   25.0443 H   0  0  0  0  0  0  0  0  0  0  0  0
    7.0550   -6.4637   24.5143 H   0  0  0  0  0  0  0  0  0  0  0  0
   -0.0720   -2.1339   27.8047 H   0  0  0  0  0  0  0  0  0  0  0  0
    1.3648    0.8363   29.5302 H   0  0  0  0  0  0  0  0  0  0  0  0
    0.6552    3.1157   28.9917 H   0  0  0  0  0  0  0  0  0  0  0  0
   -2.3218    4.1260   28.2097 H   0  0  0  0  0  0  0  0  0  0  0  0
   -0.7070    4.6470   27.6779 H   0  0  0  0  0  0  0  0  0  0  0  0
   -2.6238    4.7920   26.2067 H   0  0  0  0  0  0  0  0  0  0  0  0
   -2.6030    1.5827   26.6339 H   0  0  0  0  0  0  0  0  0  0  0  0
   -1.9042   -0.6996   27.1533 H   0  0  0  0  0  0  0  0  0  0  0  0
   -1.8261   -2.5631   29.2613 H   0  0  0  0  0  0  0  0  0  0  0  0
   -1.4692   -1.1783   30.1524 H   0  0  0  0  0  0  0  0  0  0  0  0
  1  2  2  0
  2  3  1  0
  3  4  1  0
  4  5  1  0
  5  6  2  0
  6  7  1  0
  7  8  2  0
  2  9  1  0
  9 10  1  0
 10 11  1  0
 11 12  1  0
 12 13  1  0
 13 14  1  0
 14 15  1  0
 15 16  1  0
 16 17  1  0
 16 18  1  0
 16 19  1  0
 19 20  2  0
 19 21  1  0
 21 22  1  0
 22 23  1  0
 23 24  2  0
 24 25  1  0
 25 26  2  0
 26 27  1  0
 27 28  2  0
 28 29  1  0
 29 30  2  0
 30 31  1  0
 26 32  1  0
 22 33  1  0
 33 34  1  0
 34 35  1  0
 12 36  1  0
 36 37  1  0
 37 38  2  0
 38 39  1  0
 39 40  2  0
 40 41  1  0
 41 42  1  0
 40 43  1  0
 43 44  2  0
 36 45  1  0
  8  4  1  0
 45  9  1  0
 35 22  1  0
 44 37  1  0
 32 23  1  0
 31 27  1  0
  3 46  1  0
  3 47  1  0
  5 48  1  0
  8 49  1  0
 10 50  1  0
 10 51  1  0
 11 52  1  0
 11 53  1  0
 12 54  1  0
 13 55  1  0
 14 56  1  0
 14 57  1  0
 15 58  1  0
 15 59  1  0
 17 60  1  0
 21 61  1  0
 28 62  1  0
 29 63  1  0
 30 64  1  0
 32 65  1  0
 33 66  1  0
 33 67  1  0
 34 68  1  0
 34 69  1  0
 35 70  1  0
 35 71  1  0
 36 72  1  0
 38 73  1  0
 39 74  1  0
 41 75  1  0
 41 76  1  0
 42 77  1  0
 43 78  1  0
 44 79  1  0
 45 80  1  0
 45 81  1  0
M  END
>  <Energy>  (376) 
162.39271042666053

>  <compound_id>  (376) 
4083

>  <target_id>  (376) 
1

>  <reference_id>  (376) 
142

>  <inspiration_ids>  (376) 
[142, 155]

>  <energy_score>  (376) 
-13.425380343805159

>  <distance_score>  (376) 
2.2125800204399155

>  <path>  (376) 
/opt/xchem-fragalysis-2/maxwin/BulkDock/SCRATCH/505735/C4083-P142/C4083-P142.minimised.mol

>  <scratch_subdir>  (376) 
/opt/xchem-fragalysis-2/maxwin/BulkDock/SCRATCH/505735/C4083-P142

>  <fragmenstein_runtime>  (376) 
35.24654269218445

>  <fragmenstein_outcome>  (376) 
too moved

>  <fragmenstein_mode>  (376) 
expansion

>  <fragmenstein_error>  (376) 


$$$$
C4083-P155
     RDKit          3D

 81 86  0  0  0  0  0  0  0  0999 V2000
   -0.0141   -4.5529   30.3807 O   0  0  0  0  0  0  0  0  0  0  0  0
   -0.2353   -4.2938   31.5335 C   0  0  0  0  0  0  0  0  0  0  0  0
   -0.2775   -5.4438   32.5492 C   0  0  0  0  0  0  0  0  0  0  0  0
   -0.5934   -6.7272   31.9372 N   0  0  0  0  0  0  0  0  0  0  0  0
   -1.4025   -7.6912   32.4488 C   0  0  0  0  0  0  0  0  0  0  0  0
   -1.5848   -8.6281   31.5462 N   0  0  0  0  0  0  0  0  0  0  0  0
   -0.8052   -8.3312   30.4628 N   0  0  0  0  0  0  0  0  0  0  0  0
   -0.1632   -7.2234   30.7423 C   0  0  0  0  0  0  0  0  0  0  0  0
   -0.4334   -3.0307   32.1808 N   0  0  0  0  0  0  0  0  0  0  0  0
    0.8977   -2.4842   32.6870 C   0  0  0  0  0  0  0  0  0  0  0  0
    2.0574   -2.4427   31.6859 C   0  0  0  0  0  0  0  0  0  0  0  0
    1.7467   -1.4838   30.5416 C   0  0  0  0  0  0  0  0  0  0  0  0
    2.5908   -1.7195   29.3538 N   0  0  0  0  0  0  0  0  0  0  0  0
    2.4216   -3.0460   28.7356 C   0  0  0  0  0  0  0  0  0  0  0  0
    3.1712   -3.1208   27.4126 C   0  0  0  0  0  0  0  0  0  0  0  0
    4.6891   -3.3180   27.4747 C   0  0  0  0  0  0  0  0  0  0  0  0
    5.6199   -2.1757   28.5745 S   0  0  0  0  0  0  0  0  0  0  0  0
    5.2624   -2.9911   25.7917 Cl  0  0  0  0  0  0  0  0  0  0  0  0
    5.1335   -4.8021   27.7986 C   0  0  0  0  0  0  0  0  0  0  0  0
    4.3324   -5.6039   28.1980 O   0  0  0  0  0  0  0  0  0  0  0  0
    6.5529   -4.9421   27.5109 N   0  0  0  0  0  0  0  0  0  0  0  0
    7.4229   -6.1168   27.5248 C   0  0  0  0  0  0  0  0  0  0  0  0
    8.9239   -5.6586   27.6063 C   0  0  0  0  0  0  0  0  0  0  0  0
    9.7294   -5.8723   28.6222 N   0  0  0  0  0  0  0  0  0  0  0  0
   10.9696   -5.3819   28.2810 N   0  0  0  0  0  0  0  0  0  0  0  0
   10.8888   -4.8564   27.0749 C   0  0  0  0  0  0  0  0  0  0  0  0
   11.9578   -4.2517   26.3392 C   0  0  0  0  0  0  0  0  0  0  0  0
   11.8686   -3.3909   25.2617 C   0  0  0  0  0  0  0  0  0  0  0  0
   13.1451   -2.9927   24.7652 C   0  0  0  0  0  0  0  0  0  0  0  0
   14.1732   -3.5564   25.4840 C   0  0  0  0  0  0  0  0  0  0  0  0
   13.5977   -4.5538   26.7473 S   0  0  0  0  0  0  0  0  0  0  0  0
    9.6054   -4.9990   26.6216 N   0  0  0  0  0  0  0  0  0  0  0  0
    7.0623   -7.2743   28.4947 C   0  0  0  0  0  0  0  0  0  0  0  0
    7.5053   -8.2487   27.3797 C   0  0  0  0  0  0  0  0  0  0  0  0
    7.1529   -7.1314   26.3724 C   0  0  0  0  0  0  0  0  0  0  0  0
    0.2300   -1.4439   30.2647 C   0  0  0  0  0  0  0  0  0  0  0  0
   -0.2427   -0.2673   29.4273 C   0  0  0  0  0  0  0  0  0  0  0  0
    0.1485    1.0594   29.6406 C   0  0  0  0  0  0  0  0  0  0  0  0
   -0.3171    2.0899   28.8038 C   0  0  0  0  0  0  0  0  0  0  0  0
   -1.2027    1.8251   27.7551 C   0  0  0  0  0  0  0  0  0  0  0  0
   -1.8198    2.8878   26.8793 C   0  0  0  0  0  0  0  0  0  0  0  0
   -1.4394    4.2025   27.2590 O   0  0  0  0  0  0  0  0  0  0  0  0
   -1.5549    0.4958   27.5242 C   0  0  0  0  0  0  0  0  0  0  0  0
   -1.0994   -0.5308   28.3508 C   0  0  0  0  0  0  0  0  0  0  0  0
   -0.5408   -1.6225   31.6023 C   0  0  0  0  0  0  0  0  0  0  0  0
    0.7051   -5.5535   33.0182 H   0  0  0  0  0  0  0  0  0  0  0  0
   -1.0345   -5.2415   33.3132 H   0  0  0  0  0  0  0  0  0  0  0  0
   -1.8352   -7.6756   33.4388 H   0  0  0  0  0  0  0  0  0  0  0  0
    0.5719   -6.7493   30.1085 H   0  0  0  0  0  0  0  0  0  0  0  0
    0.8342   -1.5966   33.3387 H   0  0  0  0  0  0  0  0  0  0  0  0
    1.2066   -3.2457   33.4212 H   0  0  0  0  0  0  0  0  0  0  0  0
    2.2530   -3.4618   31.3432 H   0  0  0  0  0  0  0  0  0  0  0  0
    2.9752   -2.1254   32.1973 H   0  0  0  0  0  0  0  0  0  0  0  0
    2.0445   -0.4947   30.9126 H   0  0  0  0  0  0  0  0  0  0  0  0
    2.3243   -1.0120   28.6572 H   0  0  0  0  0  0  0  0  0  0  0  0
    1.3701   -3.2322   28.5042 H   0  0  0  0  0  0  0  0  0  0  0  0
    2.7697   -3.8461   29.3928 H   0  0  0  0  0  0  0  0  0  0  0  0
    2.7392   -3.9513   26.8373 H   0  0  0  0  0  0  0  0  0  0  0  0
    2.9311   -2.2150   26.8377 H   0  0  0  0  0  0  0  0  0  0  0  0
    4.5641   -1.8109   29.3253 H   0  0  0  0  0  0  0  0  0  0  0  0
    6.8975   -4.0722   27.1082 H   0  0  0  0  0  0  0  0  0  0  0  0
   10.9366   -3.0368   24.8443 H   0  0  0  0  0  0  0  0  0  0  0  0
   13.2934   -2.3188   23.9288 H   0  0  0  0  0  0  0  0  0  0  0  0
   15.2363   -3.4259   25.3358 H   0  0  0  0  0  0  0  0  0  0  0  0
    9.2367   -4.7224   25.7181 H   0  0  0  0  0  0  0  0  0  0  0  0
    6.0008   -7.3702   28.7403 H   0  0  0  0  0  0  0  0  0  0  0  0
    7.6302   -7.3425   29.4269 H   0  0  0  0  0  0  0  0  0  0  0  0
    6.9382   -9.1746   27.2930 H   0  0  0  0  0  0  0  0  0  0  0  0
    8.5717   -8.5030   27.4072 H   0  0  0  0  0  0  0  0  0  0  0  0
    6.1111   -7.1649   26.0293 H   0  0  0  0  0  0  0  0  0  0  0  0
    7.8011   -7.0749   25.4931 H   0  0  0  0  0  0  0  0  0  0  0  0
   -0.0217   -2.3245   29.6696 H   0  0  0  0  0  0  0  0  0  0  0  0
    0.8190    1.3275   30.4524 H   0  0  0  0  0  0  0  0  0  0  0  0
   -0.0073    3.1165   28.9978 H   0  0  0  0  0  0  0  0  0  0  0  0
   -1.5114    2.7352   25.8400 H   0  0  0  0  0  0  0  0  0  0  0  0
   -2.9112    2.8167   26.9424 H   0  0  0  0  0  0  0  0  0  0  0  0
   -2.1003    4.7981   26.8552 H   0  0  0  0  0  0  0  0  0  0  0  0
   -2.1982    0.2408   26.6863 H   0  0  0  0  0  0  0  0  0  0  0  0
   -1.4186   -1.5477   28.1208 H   0  0  0  0  0  0  0  0  0  0  0  0
   -1.6050   -1.6046   31.3150 H   0  0  0  0  0  0  0  0  0  0  0  0
   -0.4963   -0.7742   32.3048 H   0  0  0  0  0  0  0  0  0  0  0  0
  1  2  2  0
  2  3  1  0
  3  4  1  0
  4  5  1  0
  5  6  2  0
  6  7  1  0
  7  8  2  0
  2  9  1  0
  9 10  1  0
 10 11  1  0
 11 12  1  0
 12 13  1  0
 13 14  1  0
 14 15  1  0
 15 16  1  0
 16 17  1  0
 16 18  1  0
 16 19  1  0
 19 20  2  0
 19 21  1  0
 21 22  1  0
 22 23  1  0
 23 24  2  0
 24 25  1  0
 25 26  2  0
 26 27  1  0
 27 28  2  0
 28 29  1  0
 29 30  2  0
 30 31  1  0
 26 32  1  0
 22 33  1  0
 33 34  1  0
 34 35  1  0
 12 36  1  0
 36 37  1  0
 37 38  2  0
 38 39  1  0
 39 40  2  0
 40 41  1  0
 41 42  1  0
 40 43  1  0
 43 44  2  0
 36 45  1  0
  8  4  1  0
 45  9  1  0
 35 22  1  0
 44 37  1  0
 32 23  1  0
 31 27  1  0
  3 46  1  0
  3 47  1  0
  5 48  1  0
  8 49  1  0
 10 50  1  0
 10 51  1  0
 11 52  1  0
 11 53  1  0
 12 54  1  0
 13 55  1  0
 14 56  1  0
 14 57  1  0
 15 58  1  0
 15 59  1  0
 17 60  1  0
 21 61  1  0
 28 62  1  0
 29 63  1  0
 30 64  1  0
 32 65  1  0
 33 66  1  0
 33 67  1  0
 34 68  1  0
 34 69  1  0
 35 70  1  0
 35 71  1  0
 36 72  1  0
 38 73  1  0
 39 74  1  0
 41 75  1  0
 41 76  1  0
 42 77  1  0
 43 78  1  0
 44 79  1  0
 45 80  1  0
 45 81  1  0
M  END
>  <Energy>  (377) 
166.65799039943911

>  <compound_id>  (377) 
4083

>  <target_id>  (377) 
1

>  <reference_id>  (377) 
155

>  <inspiration_ids>  (377) 
[142, 155]

>  <energy_score>  (377) 
-9.16010037103058

>  <distance_score>  (377) 
1.1916129036961707

>  <path>  (377) 
/opt/xchem-fragalysis-2/maxwin/BulkDock/SCRATCH/505735/C4083-P155/C4083-P155.minimised.mol

>  <scratch_subdir>  (377) 
/opt/xchem-fragalysis-2/maxwin/BulkDock/SCRATCH/505735/C4083-P155

>  <fragmenstein_runtime>  (377) 
39.87790870666504

>  <fragmenstein_outcome>  (377) 
too moved

>  <fragmenstein_mode>  (377) 
expansion

>  <fragmenstein_error>  (377) 


$$$$
C2640-P142
     RDKit          3D

 66 70  0  0  0  0  0  0  0  0999 V2000
   -1.8827   -4.0169   31.9023 O   0  0  0  0  0  0  0  0  0  0  0  0
   -0.9153   -4.1849   32.5979 C   0  0  0  0  0  0  0  0  0  0  0  0
   -0.6282   -5.5665   33.1936 C   0  0  0  0  0  0  0  0  0  0  0  0
   -0.7518   -6.6206   32.2056 N   0  0  0  0  0  0  0  0  0  0  0  0
   -1.3230   -7.8390   32.3931 C   0  0  0  0  0  0  0  0  0  0  0  0
   -1.2802   -8.5180   31.2696 N   0  0  0  0  0  0  0  0  0  0  0  0
   -0.6404   -7.7446   30.3353 N   0  0  0  0  0  0  0  0  0  0  0  0
   -0.3248   -6.6097   30.9135 C   0  0  0  0  0  0  0  0  0  0  0  0
    0.1418   -3.2869   32.9549 N   0  0  0  0  0  0  0  0  0  0  0  0
    0.3222   -1.8094   32.6676 C   0  0  0  0  0  0  0  0  0  0  0  0
    0.6860   -1.1116   31.3441 C   0  0  0  0  0  0  0  0  0  0  0  0
    2.1501   -1.3878   31.0049 C   0  0  0  0  0  0  0  0  0  0  0  0
    2.6342   -2.5737   31.8726 C   0  0  0  0  0  0  0  0  0  0  0  0
    3.5916   -3.4602   31.1517 N   0  0  0  0  0  0  0  0  0  0  0  0
    4.8385   -2.8634   30.6312 C   0  0  0  0  0  0  0  0  0  0  0  0
    6.1700   -3.7114   30.7957 C   0  0  0  0  0  0  0  0  0  0  0  0
    6.3864   -4.4520   29.5466 C   0  0  0  0  0  0  0  0  0  0  0  0
    7.6202   -5.5479   29.2165 S   0  0  0  0  0  0  0  0  0  0  0  0
    7.0897   -5.6927   27.5878 C   0  0  0  0  0  0  0  0  0  0  0  0
    5.9663   -4.9272   27.3367 C   0  0  0  0  0  0  0  0  0  0  0  0
    5.5559   -4.2086   28.4937 C   0  0  0  0  0  0  0  0  0  0  0  0
    4.3998   -3.2858   28.7042 C   0  0  0  0  0  0  0  0  0  0  0  0
    4.6575   -1.9366   29.4445 N   0  0  0  0  0  0  0  0  0  0  0  0
    5.6128   -1.1536   28.7159 C   0  0  0  0  0  0  0  0  0  0  0  0
    6.8128   -1.1040   28.8026 O   0  0  0  0  0  0  0  0  0  0  0  0
    4.8431   -0.2238   27.7529 C   0  0  0  0  0  0  0  0  0  0  0  0
    5.5225    1.4577   27.8452 S   0  0  0  0  0  0  0  0  0  0  0  0
    4.9864   -0.8928   26.1177 Cl  0  0  0  0  0  0  0  0  0  0  0  0
    3.2279   -2.2517   33.2581 C   0  0  0  0  0  0  0  0  0  0  0  0
    3.8335   -1.0162   33.5466 C   0  0  0  0  0  0  0  0  0  0  0  0
    4.3942   -0.7540   34.8023 C   0  0  0  0  0  0  0  0  0  0  0  0
    4.3740   -1.7224   35.8079 C   0  0  0  0  0  0  0  0  0  0  0  0
    4.9750   -1.4513   37.1610 C   0  0  0  0  0  0  0  0  0  0  0  0
    3.9822   -1.5506   38.1729 O   0  0  0  0  0  0  0  0  0  0  0  0
    3.7884   -2.9611   35.5329 C   0  0  0  0  0  0  0  0  0  0  0  0
    3.2300   -3.2227   34.2783 C   0  0  0  0  0  0  0  0  0  0  0  0
    1.2815   -3.4055   31.9568 C   0  0  0  0  0  0  0  0  0  0  0  0
    0.3817   -5.6410   33.6090 H   0  0  0  0  0  0  0  0  0  0  0  0
   -1.3382   -5.7620   34.0007 H   0  0  0  0  0  0  0  0  0  0  0  0
   -1.7491   -8.1823   33.3258 H   0  0  0  0  0  0  0  0  0  0  0  0
    0.1684   -5.7788   30.4317 H   0  0  0  0  0  0  0  0  0  0  0  0
   -0.6967   -1.4404   32.8680 H   0  0  0  0  0  0  0  0  0  0  0  0
    0.8832   -1.3816   33.5092 H   0  0  0  0  0  0  0  0  0  0  0  0
    0.5321   -0.0303   31.4384 H   0  0  0  0  0  0  0  0  0  0  0  0
    0.0249   -1.4524   30.5373 H   0  0  0  0  0  0  0  0  0  0  0  0
    2.1655   -1.6460   29.9382 H   0  0  0  0  0  0  0  0  0  0  0  0
    2.7576   -0.4851   31.0993 H   0  0  0  0  0  0  0  0  0  0  0  0
    3.8640   -4.2028   31.7966 H   0  0  0  0  0  0  0  0  0  0  0  0
    5.0769   -2.0985   31.3824 H   0  0  0  0  0  0  0  0  0  0  0  0
    7.0127   -3.0302   30.9700 H   0  0  0  0  0  0  0  0  0  0  0  0
    6.0974   -4.3784   31.6619 H   0  0  0  0  0  0  0  0  0  0  0  0
    7.6324   -6.3160   26.8895 H   0  0  0  0  0  0  0  0  0  0  0  0
    5.4936   -4.8806   26.3623 H   0  0  0  0  0  0  0  0  0  0  0  0
    4.1231   -2.9565   27.6930 H   0  0  0  0  0  0  0  0  0  0  0  0
    3.4721   -3.8051   28.9841 H   0  0  0  0  0  0  0  0  0  0  0  0
    3.7801   -0.1823   28.0078 H   0  0  0  0  0  0  0  0  0  0  0  0
    6.8031    1.0643   27.7391 H   0  0  0  0  0  0  0  0  0  0  0  0
    3.9026   -0.2284   32.8009 H   0  0  0  0  0  0  0  0  0  0  0  0
    4.8532    0.2170   34.9821 H   0  0  0  0  0  0  0  0  0  0  0  0
    5.4072   -0.4466   37.2104 H   0  0  0  0  0  0  0  0  0  0  0  0
    5.7721   -2.1708   37.3741 H   0  0  0  0  0  0  0  0  0  0  0  0
    3.1415   -1.2522   37.7851 H   0  0  0  0  0  0  0  0  0  0  0  0
    3.7634   -3.7305   36.3035 H   0  0  0  0  0  0  0  0  0  0  0  0
    2.7907   -4.2044   34.1211 H   0  0  0  0  0  0  0  0  0  0  0  0
    0.8487   -3.5417   30.9462 H   0  0  0  0  0  0  0  0  0  0  0  0
    1.6160   -4.4361   32.1630 H   0  0  0  0  0  0  0  0  0  0  0  0
  1  2  2  0
  2  3  1  0
  3  4  1  0
  4  5  1  0
  5  6  2  0
  6  7  1  0
  7  8  2  0
  2  9  1  0
  9 10  1  0
 10 11  1  0
 11 12  1  0
 12 13  1  0
 13 14  1  0
 14 15  1  0
 15 16  1  0
 16 17  1  0
 17 18  1  0
 18 19  1  0
 19 20  2  0
 20 21  1  0
 21 22  1  0
 22 23  1  0
 23 24  1  0
 24 25  2  0
 24 26  1  0
 26 27  1  0
 26 28  1  0
 13 29  1  0
 29 30  2  0
 30 31  1  0
 31 32  2  0
 32 33  1  0
 33 34  1  0
 32 35  1  0
 35 36  2  0
 13 37  1  0
  8  4  1  0
 37  9  1  0
 23 15  1  0
 36 29  1  0
 21 17  2  0
  3 38  1  0
  3 39  1  0
  5 40  1  0
  8 41  1  0
 10 42  1  0
 10 43  1  0
 11 44  1  0
 11 45  1  0
 12 46  1  0
 12 47  1  0
 14 48  1  0
 15 49  1  0
 16 50  1  0
 16 51  1  0
 19 52  1  0
 20 53  1  0
 22 54  1  0
 22 55  1  0
 26 56  1  0
 27 57  1  0
 30 58  1  0
 31 59  1  0
 33 60  1  0
 33 61  1  0
 34 62  1  0
 35 63  1  0
 36 64  1  0
 37 65  1  0
 37 66  1  0
M  END
>  <Energy>  (378) 
237.98492922517838

>  <compound_id>  (378) 
2640

>  <target_id>  (378) 
1

>  <reference_id>  (378) 
142

>  <inspiration_ids>  (378) 
[142, 157]

>  <energy_score>  (378) 
72.99006175299854

>  <distance_score>  (378) 
1.391589153761696

>  <path>  (378) 
/opt/xchem-fragalysis-2/maxwin/BulkDock/SCRATCH/505735/C2640-P142/C2640-P142.minimised.mol

>  <scratch_subdir>  (378) 
/opt/xchem-fragalysis-2/maxwin/BulkDock/SCRATCH/505735/C2640-P142

>  <fragmenstein_runtime>  (378) 
6.971136569976807

>  <fragmenstein_outcome>  (378) 
too moved

>  <fragmenstein_mode>  (378) 
expansion

>  <fragmenstein_error>  (378) 


$$$$
C2640-P157
     RDKit          3D

 66 70  0  0  0  0  0  0  0  0999 V2000
   -2.0163   -3.9332   31.9470 O   0  0  0  0  0  0  0  0  0  0  0  0
   -0.9821   -4.0244   32.5526 C   0  0  0  0  0  0  0  0  0  0  0  0
   -0.5513   -5.3682   33.1484 C   0  0  0  0  0  0  0  0  0  0  0  0
   -0.6996   -6.4674   32.2154 N   0  0  0  0  0  0  0  0  0  0  0  0
   -1.2650   -7.6794   32.4666 C   0  0  0  0  0  0  0  0  0  0  0  0
   -1.2129   -8.4165   31.3795 N   0  0  0  0  0  0  0  0  0  0  0  0
   -0.5750   -7.6865   30.4070 N   0  0  0  0  0  0  0  0  0  0  0  0
   -0.2671   -6.5204   30.9259 C   0  0  0  0  0  0  0  0  0  0  0  0
   -0.0177   -3.0284   32.8984 N   0  0  0  0  0  0  0  0  0  0  0  0
   -0.0421   -1.5271   32.7160 C   0  0  0  0  0  0  0  0  0  0  0  0
    0.1502   -0.6841   31.4481 C   0  0  0  0  0  0  0  0  0  0  0  0
    1.6244   -0.7079   31.0609 C   0  0  0  0  0  0  0  0  0  0  0  0
    2.2885   -1.9387   31.7259 C   0  0  0  0  0  0  0  0  0  0  0  0
    3.2638   -2.5626   30.7860 N   0  0  0  0  0  0  0  0  0  0  0  0
    4.5036   -1.8130   30.4793 C   0  0  0  0  0  0  0  0  0  0  0  0
    5.8252   -2.6658   30.3169 C   0  0  0  0  0  0  0  0  0  0  0  0
    5.9128   -3.0411   28.9059 C   0  0  0  0  0  0  0  0  0  0  0  0
    6.9575   -4.1652   28.2211 S   0  0  0  0  0  0  0  0  0  0  0  0
    6.2858   -3.8712   26.6686 C   0  0  0  0  0  0  0  0  0  0  0  0
    5.2979   -2.9058   26.6987 C   0  0  0  0  0  0  0  0  0  0  0  0
    5.0690   -2.4376   28.0224 C   0  0  0  0  0  0  0  0  0  0  0  0
    4.0216   -1.5020   28.5386 C   0  0  0  0  0  0  0  0  0  0  0  0
    4.3342   -0.5165   29.7133 N   0  0  0  0  0  0  0  0  0  0  0  0
    5.3030    0.4542   29.2927 C   0  0  0  0  0  0  0  0  0  0  0  0
    6.5046    0.4402   29.3607 O   0  0  0  0  0  0  0  0  0  0  0  0
    4.5420    1.6975   28.7806 C   0  0  0  0  0  0  0  0  0  0  0  0
    4.5097    2.9471   30.1026 S   0  0  0  0  0  0  0  0  0  0  0  0
    5.3555    2.3484   27.3429 Cl  0  0  0  0  0  0  0  0  0  0  0  0
    2.9457   -1.7601   33.1098 C   0  0  0  0  0  0  0  0  0  0  0  0
    3.3402   -0.5025   33.6002 C   0  0  0  0  0  0  0  0  0  0  0  0
    3.9565   -0.3672   34.8500 C   0  0  0  0  0  0  0  0  0  0  0  0
    4.2077   -1.4867   35.6455 C   0  0  0  0  0  0  0  0  0  0  0  0
    4.8629   -1.3518   36.9935 C   0  0  0  0  0  0  0  0  0  0  0  0
    3.9702   -1.7650   38.0195 O   0  0  0  0  0  0  0  0  0  0  0  0
    3.8363   -2.7459   35.1666 C   0  0  0  0  0  0  0  0  0  0  0  0
    3.2219   -2.8806   33.9181 C   0  0  0  0  0  0  0  0  0  0  0  0
    1.0444   -2.9320   31.8070 C   0  0  0  0  0  0  0  0  0  0  0  0
    0.4978   -5.3613   33.4615 H   0  0  0  0  0  0  0  0  0  0  0  0
   -1.1701   -5.5717   34.0278 H   0  0  0  0  0  0  0  0  0  0  0  0
   -1.6933   -7.9770   33.4152 H   0  0  0  0  0  0  0  0  0  0  0  0
    0.2283   -5.7114   30.4088 H   0  0  0  0  0  0  0  0  0  0  0  0
   -1.0840   -1.3083   33.0010 H   0  0  0  0  0  0  0  0  0  0  0  0
    0.5156   -1.0972   33.5592 H   0  0  0  0  0  0  0  0  0  0  0  0
   -0.1593    0.3511   31.6343 H   0  0  0  0  0  0  0  0  0  0  0  0
   -0.4835   -1.0570   30.6336 H   0  0  0  0  0  0  0  0  0  0  0  0
    1.6430   -0.7790   29.9666 H   0  0  0  0  0  0  0  0  0  0  0  0
    2.1091    0.2414   31.2983 H   0  0  0  0  0  0  0  0  0  0  0  0
    3.5512   -3.4593   31.1772 H   0  0  0  0  0  0  0  0  0  0  0  0
    4.7705   -1.3694   31.4469 H   0  0  0  0  0  0  0  0  0  0  0  0
    6.6948   -2.0595   30.5986 H   0  0  0  0  0  0  0  0  0  0  0  0
    5.8003   -3.5407   30.9763 H   0  0  0  0  0  0  0  0  0  0  0  0
    6.6556   -4.4158   25.8111 H   0  0  0  0  0  0  0  0  0  0  0  0
    4.7645   -2.5791   25.8140 H   0  0  0  0  0  0  0  0  0  0  0  0
    3.8483   -0.8100   27.6972 H   0  0  0  0  0  0  0  0  0  0  0  0
    3.0340   -1.9777   28.6176 H   0  0  0  0  0  0  0  0  0  0  0  0
    3.5153    1.4496   28.4974 H   0  0  0  0  0  0  0  0  0  0  0  0
    5.8444    3.0646   30.1842 H   0  0  0  0  0  0  0  0  0  0  0  0
    3.1965    0.4061   33.0217 H   0  0  0  0  0  0  0  0  0  0  0  0
    4.2441    0.6264   35.1905 H   0  0  0  0  0  0  0  0  0  0  0  0
    5.1518   -0.3149   37.1936 H   0  0  0  0  0  0  0  0  0  0  0  0
    5.7676   -1.9665   37.0415 H   0  0  0  0  0  0  0  0  0  0  0  0
    3.0677   -1.5659   37.7159 H   0  0  0  0  0  0  0  0  0  0  0  0
    4.0249   -3.6316   35.7716 H   0  0  0  0  0  0  0  0  0  0  0  0
    2.9621   -3.8847   33.5939 H   0  0  0  0  0  0  0  0  0  0  0  0
    0.5485   -3.0240   30.8205 H   0  0  0  0  0  0  0  0  0  0  0  0
    1.4973   -3.9352   31.8821 H   0  0  0  0  0  0  0  0  0  0  0  0
  1  2  2  0
  2  3  1  0
  3  4  1  0
  4  5  1  0
  5  6  2  0
  6  7  1  0
  7  8  2  0
  2  9  1  0
  9 10  1  0
 10 11  1  0
 11 12  1  0
 12 13  1  0
 13 14  1  0
 14 15  1  0
 15 16  1  0
 16 17  1  0
 17 18  1  0
 18 19  1  0
 19 20  2  0
 20 21  1  0
 21 22  1  0
 22 23  1  0
 23 24  1  0
 24 25  2  0
 24 26  1  0
 26 27  1  0
 26 28  1  0
 13 29  1  0
 29 30  2  0
 30 31  1  0
 31 32  2  0
 32 33  1  0
 33 34  1  0
 32 35  1  0
 35 36  2  0
 13 37  1  0
  8  4  1  0
 37  9  1  0
 23 15  1  0
 36 29  1  0
 21 17  2  0
  3 38  1  0
  3 39  1  0
  5 40  1  0
  8 41  1  0
 10 42  1  0
 10 43  1  0
 11 44  1  0
 11 45  1  0
 12 46  1  0
 12 47  1  0
 14 48  1  0
 15 49  1  0
 16 50  1  0
 16 51  1  0
 19 52  1  0
 20 53  1  0
 22 54  1  0
 22 55  1  0
 26 56  1  0
 27 57  1  0
 30 58  1  0
 31 59  1  0
 33 60  1  0
 33 61  1  0
 34 62  1  0
 35 63  1  0
 36 64  1  0
 37 65  1  0
 37 66  1  0
M  END
>  <Energy>  (379) 
237.07959510245874

>  <compound_id>  (379) 
2640

>  <target_id>  (379) 
1

>  <reference_id>  (379) 
157

>  <inspiration_ids>  (379) 
[142, 157]

>  <energy_score>  (379) 
72.0847276302801

>  <distance_score>  (379) 
1.4253344443740357

>  <path>  (379) 
/opt/xchem-fragalysis-2/maxwin/BulkDock/SCRATCH/505735/C2640-P157/C2640-P157.minimised.mol

>  <scratch_subdir>  (379) 
/opt/xchem-fragalysis-2/maxwin/BulkDock/SCRATCH/505735/C2640-P157

>  <fragmenstein_runtime>  (379) 
13.321378469467163

>  <fragmenstein_outcome>  (379) 
too moved

>  <fragmenstein_mode>  (379) 
expansion

>  <fragmenstein_error>  (379) 


$$$$
C4084-P142
     RDKit          3D

 69 72  0  0  0  0  0  0  0  0999 V2000
    1.2577   -5.3531   29.8609 C   0  0  0  0  0  0  0  0  0  0  0  0
    0.2013   -6.1551   30.6144 C   0  0  0  0  0  0  0  0  0  0  0  0
   -0.3690   -5.4188   31.8352 C   0  0  0  0  0  0  0  0  0  0  0  0
    0.7180   -5.0356   32.8694 C   0  0  0  0  0  0  0  0  0  0  0  0
    1.3699   -6.3078   33.3238 N   0  0  0  0  0  0  0  0  0  0  0  0
    0.8099   -6.8396   34.5831 N   0  0  0  0  0  0  0  0  0  0  0  0
   -0.5106   -7.4430   34.4100 C   0  0  0  0  0  0  0  0  0  0  0  0
    0.4474   -4.2279   34.0610 N   0  0  0  0  0  0  0  0  0  0  0  0
   -0.8562   -3.6093   34.1675 C   0  0  0  0  0  0  0  0  0  0  0  0
    0.3624   -2.7537   33.9282 C   0  0  0  0  0  0  0  0  0  0  0  0
    0.4621   -2.0098   32.6166 C   0  0  0  0  0  0  0  0  0  0  0  0
   -0.0689   -2.4914   31.6571 O   0  0  0  0  0  0  0  0  0  0  0  0
    1.1250   -0.7605   32.7765 N   0  0  0  0  0  0  0  0  0  0  0  0
    1.2744    0.4127   31.8205 C   0  0  0  0  0  0  0  0  0  0  0  0
    1.8111    0.2649   30.3798 C   0  0  0  0  0  0  0  0  0  0  0  0
    2.1886   -1.1607   30.0469 C   0  0  0  0  0  0  0  0  0  0  0  0
    2.7827   -1.0150   28.6605 C   0  0  0  0  0  0  0  0  0  0  0  0
    1.8930    0.0616   28.0003 C   0  0  0  0  0  0  0  0  0  0  0  0
    1.0159    0.7071   29.1285 C   0  0  0  0  0  0  0  0  0  0  0  0
    0.9795    2.2425   29.0161 C   0  0  0  0  0  0  0  0  0  0  0  0
    0.2066    2.7425   27.7935 C   0  0  0  0  0  0  0  0  0  0  0  0
   -1.2320    2.2098   27.7729 C   0  0  0  0  0  0  0  0  0  0  0  0
   -2.0199    2.6808   26.5431 C   0  0  0  0  0  0  0  0  0  0  0  0
   -1.8508    4.0771   26.3412 O   0  0  0  0  0  0  0  0  0  0  0  0
   -1.2251    0.6816   27.8664 C   0  0  0  0  0  0  0  0  0  0  0  0
   -0.4371    0.1666   29.0745 C   0  0  0  0  0  0  0  0  0  0  0  0
    3.0346   -1.6850   31.1799 C   0  0  0  0  0  0  0  0  0  0  0  0
    2.6421   -0.9133   32.4714 C   0  0  0  0  0  0  0  0  0  0  0  0
    3.4617   -1.7980   33.8813 S   0  0  0  0  0  0  0  0  0  0  0  0
    0.8454   -4.4064   29.4986 H   0  0  0  0  0  0  0  0  0  0  0  0
    1.6330   -5.9166   29.0041 H   0  0  0  0  0  0  0  0  0  0  0  0
    2.1338   -5.1360   30.4753 H   0  0  0  0  0  0  0  0  0  0  0  0
   -0.6231   -6.3871   29.9359 H   0  0  0  0  0  0  0  0  0  0  0  0
    0.6087   -7.1225   30.9183 H   0  0  0  0  0  0  0  0  0  0  0  0
   -0.9043   -4.5459   31.4596 H   0  0  0  0  0  0  0  0  0  0  0  0
   -1.1429   -6.0471   32.2835 H   0  0  0  0  0  0  0  0  0  0  0  0
    1.5088   -4.5042   32.3335 H   0  0  0  0  0  0  0  0  0  0  0  0
    2.3339   -6.0346   33.5298 H   0  0  0  0  0  0  0  0  0  0  0  0
    0.6915   -6.0603   35.2467 H   0  0  0  0  0  0  0  0  0  0  0  0
   -0.7260   -8.0655   35.2828 H   0  0  0  0  0  0  0  0  0  0  0  0
   -0.5689   -8.0658   33.5137 H   0  0  0  0  0  0  0  0  0  0  0  0
   -1.2959   -6.6831   34.3651 H   0  0  0  0  0  0  0  0  0  0  0  0
   -1.2933   -3.5981   35.1589 H   0  0  0  0  0  0  0  0  0  0  0  0
   -1.5757   -3.6892   33.3660 H   0  0  0  0  0  0  0  0  0  0  0  0
    0.7075   -2.2035   34.7982 H   0  0  0  0  0  0  0  0  0  0  0  0
    1.7160    1.2772   32.3458 H   0  0  0  0  0  0  0  0  0  0  0  0
    0.2300    0.7354   31.7220 H   0  0  0  0  0  0  0  0  0  0  0  0
    2.7387    0.8652   30.3766 H   0  0  0  0  0  0  0  0  0  0  0  0
    1.3067   -1.7972   29.9486 H   0  0  0  0  0  0  0  0  0  0  0  0
    2.7684   -1.9559   28.1017 H   0  0  0  0  0  0  0  0  0  0  0  0
    3.8207   -0.6650   28.7031 H   0  0  0  0  0  0  0  0  0  0  0  0
    1.2765   -0.4036   27.2326 H   0  0  0  0  0  0  0  0  0  0  0  0
    2.5319    0.7991   27.5013 H   0  0  0  0  0  0  0  0  0  0  0  0
    0.5190    2.6634   29.9197 H   0  0  0  0  0  0  0  0  0  0  0  0
    1.9991    2.6460   28.9758 H   0  0  0  0  0  0  0  0  0  0  0  0
    0.2035    3.8388   27.8142 H   0  0  0  0  0  0  0  0  0  0  0  0
    0.7286    2.4469   26.8754 H   0  0  0  0  0  0  0  0  0  0  0  0
   -1.7399    2.6194   28.6523 H   0  0  0  0  0  0  0  0  0  0  0  0
   -3.0869    2.4542   26.6504 H   0  0  0  0  0  0  0  0  0  0  0  0
   -1.6653    2.1831   25.6380 H   0  0  0  0  0  0  0  0  0  0  0  0
   -2.6985    4.5209   26.5488 H   0  0  0  0  0  0  0  0  0  0  0  0
   -2.2446    0.3006   27.9216 H   0  0  0  0  0  0  0  0  0  0  0  0
   -0.8055    0.2608   26.9508 H   0  0  0  0  0  0  0  0  0  0  0  0
   -0.4531   -0.9284   29.0494 H   0  0  0  0  0  0  0  0  0  0  0  0
   -0.9822    0.4618   29.9780 H   0  0  0  0  0  0  0  0  0  0  0  0
    2.8795   -2.7659   31.2760 H   0  0  0  0  0  0  0  0  0  0  0  0
    4.1018   -1.5355   30.9726 H   0  0  0  0  0  0  0  0  0  0  0  0
    3.2116    0.0280   32.5534 H   0  0  0  0  0  0  0  0  0  0  0  0
    4.7198   -1.6507   33.4424 H   0  0  0  0  0  0  0  0  0  0  0  0
  1  2  1  0
  2  3  1  0
  3  4  1  0
  4  5  1  0
  5  6  1  0
  6  7  1  0
  4  8  1  0
  8  9  1  0
  9 10  1  0
 10 11  1  0
 11 12  2  0
 11 13  1  0
 13 14  1  0
 14 15  1  0
 15 16  1  0
 16 17  1  0
 17 18  1  0
 18 19  1  0
 19 20  1  0
 20 21  1  0
 21 22  1  0
 22 23  1  0
 23 24  1  0
 22 25  1  0
 25 26  1  0
 16 27  1  0
 27 28  1  0
 28 29  1  0
 10  8  1  0
 28 13  1  0
 19 15  1  0
 26 19  1  0
  1 30  1  0
  1 31  1  0
  1 32  1  0
  2 33  1  0
  2 34  1  0
  3 35  1  0
  3 36  1  0
  4 37  1  0
  5 38  1  0
  6 39  1  0
  7 40  1  0
  7 41  1  0
  7 42  1  0
  9 43  1  0
  9 44  1  0
 10 45  1  0
 14 46  1  0
 14 47  1  0
 15 48  1  0
 16 49  1  0
 17 50  1  0
 17 51  1  0
 18 52  1  0
 18 53  1  0
 20 54  1  0
 20 55  1  0
 21 56  1  0
 21 57  1  0
 22 58  1  0
 23 59  1  0
 23 60  1  0
 24 61  1  0
 25 62  1  0
 25 63  1  0
 26 64  1  0
 26 65  1  0
 27 66  1  0
 27 67  1  0
 28 68  1  0
 29 69  1  0
M  END
>  <Energy>  (380) 
170.25140190177936

>  <compound_id>  (380) 
4084

>  <target_id>  (380) 
1

>  <reference_id>  (380) 
142

>  <inspiration_ids>  (380) 
[142, 158]

>  <energy_score>  (380) 
-10.203516054799024

>  <distance_score>  (380) 
2.518855768043088

>  <path>  (380) 
/opt/xchem-fragalysis-2/maxwin/BulkDock/SCRATCH/505735/C4084-P142/C4084-P142.minimised.mol

>  <scratch_subdir>  (380) 
/opt/xchem-fragalysis-2/maxwin/BulkDock/SCRATCH/505735/C4084-P142

>  <fragmenstein_runtime>  (380) 
21.519898653030396

>  <fragmenstein_outcome>  (380) 
too moved

>  <fragmenstein_mode>  (380) 
expansion

>  <fragmenstein_error>  (380) 


$$$$
C4084-P158
     RDKit          3D

 69 72  0  0  0  0  0  0  0  0999 V2000
    2.0965   -5.8005   35.8878 C   0  0  0  0  0  0  0  0  0  0  0  0
    2.1280   -6.6006   34.5936 C   0  0  0  0  0  0  0  0  0  0  0  0
    1.4754   -5.8821   33.4003 C   0  0  0  0  0  0  0  0  0  0  0  0
   -0.0170   -5.5209   33.5660 C   0  0  0  0  0  0  0  0  0  0  0  0
   -0.9102   -6.6476   33.2434 N   0  0  0  0  0  0  0  0  0  0  0  0
   -0.7868   -7.7351   34.1818 N   0  0  0  0  0  0  0  0  0  0  0  0
   -1.5534   -7.5129   35.4081 C   0  0  0  0  0  0  0  0  0  0  0  0
   -0.3690   -4.4736   32.6008 N   0  0  0  0  0  0  0  0  0  0  0  0
   -1.2102   -3.4188   33.1551 C   0  0  0  0  0  0  0  0  0  0  0  0
    0.2481   -3.1610   32.9023 C   0  0  0  0  0  0  0  0  0  0  0  0
    0.5756   -2.2768   31.7374 C   0  0  0  0  0  0  0  0  0  0  0  0
    0.2660   -2.6637   30.6450 O   0  0  0  0  0  0  0  0  0  0  0  0
    1.1397   -1.0350   32.1559 N   0  0  0  0  0  0  0  0  0  0  0  0
    1.4206    0.2240   31.3836 C   0  0  0  0  0  0  0  0  0  0  0  0
    2.1528    0.2017   30.0298 C   0  0  0  0  0  0  0  0  0  0  0  0
    2.7119   -1.1594   29.6734 C   0  0  0  0  0  0  0  0  0  0  0  0
    3.4760   -0.8499   28.4031 C   0  0  0  0  0  0  0  0  0  0  0  0
    2.5321    0.1361   27.6700 C   0  0  0  0  0  0  0  0  0  0  0  0
    1.4631    0.6223   28.7148 C   0  0  0  0  0  0  0  0  0  0  0  0
    1.2637    2.1471   28.6712 C   0  0  0  0  0  0  0  0  0  0  0  0
    0.5167    2.6332   27.4280 C   0  0  0  0  0  0  0  0  0  0  0  0
   -0.8289    1.9196   27.2377 C   0  0  0  0  0  0  0  0  0  0  0  0
   -1.5511    2.3790   25.9669 C   0  0  0  0  0  0  0  0  0  0  0  0
   -1.8600    3.7616   26.0176 O   0  0  0  0  0  0  0  0  0  0  0  0
   -0.6255    0.4105   27.2473 C   0  0  0  0  0  0  0  0  0  0  0  0
    0.0961   -0.0770   28.4957 C   0  0  0  0  0  0  0  0  0  0  0  0
    3.3895   -1.7288   30.8913 C   0  0  0  0  0  0  0  0  0  0  0  0
    2.7078   -1.1183   32.1483 C   0  0  0  0  0  0  0  0  0  0  0  0
    3.3056   -2.0766   33.6131 S   0  0  0  0  0  0  0  0  0  0  0  0
    2.7082   -6.2970   36.6482 H   0  0  0  0  0  0  0  0  0  0  0  0
    2.4958   -4.7927   35.7387 H   0  0  0  0  0  0  0  0  0  0  0  0
    1.0829   -5.7176   36.2890 H   0  0  0  0  0  0  0  0  0  0  0  0
    3.1795   -6.7844   34.3464 H   0  0  0  0  0  0  0  0  0  0  0  0
    1.6835   -7.5838   34.7651 H   0  0  0  0  0  0  0  0  0  0  0  0
    1.5957   -6.4824   32.4941 H   0  0  0  0  0  0  0  0  0  0  0  0
    2.0735   -4.9814   33.2208 H   0  0  0  0  0  0  0  0  0  0  0  0
   -0.2027   -5.1723   34.5872 H   0  0  0  0  0  0  0  0  0  0  0  0
   -1.8561   -6.2635   33.2191 H   0  0  0  0  0  0  0  0  0  0  0  0
   -1.1571   -8.6119   33.7927 H   0  0  0  0  0  0  0  0  0  0  0  0
   -1.3722   -6.5332   35.8581 H   0  0  0  0  0  0  0  0  0  0  0  0
   -1.2627   -8.2659   36.1458 H   0  0  0  0  0  0  0  0  0  0  0  0
   -2.6200   -7.6337   35.2090 H   0  0  0  0  0  0  0  0  0  0  0  0
   -1.5007   -3.4292   34.1977 H   0  0  0  0  0  0  0  0  0  0  0  0
   -1.9345   -2.9809   32.4795 H   0  0  0  0  0  0  0  0  0  0  0  0
    0.8322   -3.0537   33.8054 H   0  0  0  0  0  0  0  0  0  0  0  0
    1.7686    1.0340   32.0484 H   0  0  0  0  0  0  0  0  0  0  0  0
    0.4019    0.5744   31.1722 H   0  0  0  0  0  0  0  0  0  0  0  0
    3.0036    0.8911   30.1728 H   0  0  0  0  0  0  0  0  0  0  0  0
    1.9317   -1.8622   29.3799 H   0  0  0  0  0  0  0  0  0  0  0  0
    3.6760   -1.7439   27.8045 H   0  0  0  0  0  0  0  0  0  0  0  0
    4.4345   -0.3638   28.6192 H   0  0  0  0  0  0  0  0  0  0  0  0
    2.0680   -0.3747   26.8250 H   0  0  0  0  0  0  0  0  0  0  0  0
    3.1208    0.9665   27.2644 H   0  0  0  0  0  0  0  0  0  0  0  0
    0.7088    2.4632   29.5623 H   0  0  0  0  0  0  0  0  0  0  0  0
    2.2326    2.6600   28.7225 H   0  0  0  0  0  0  0  0  0  0  0  0
    0.3635    3.7145   27.5206 H   0  0  0  0  0  0  0  0  0  0  0  0
    1.1455    2.4800   26.5420 H   0  0  0  0  0  0  0  0  0  0  0  0
   -1.4734    2.1649   28.0820 H   0  0  0  0  0  0  0  0  0  0  0  0
   -2.4932    1.8349   25.8453 H   0  0  0  0  0  0  0  0  0  0  0  0
   -0.9461    2.2066   25.0737 H   0  0  0  0  0  0  0  0  0  0  0  0
   -1.0392    4.2742   25.9575 H   0  0  0  0  0  0  0  0  0  0  0  0
   -1.5799   -0.1090   27.1652 H   0  0  0  0  0  0  0  0  0  0  0  0
   -0.0469    0.1224   26.3793 H   0  0  0  0  0  0  0  0  0  0  0  0
    0.2121   -1.1616   28.4060 H   0  0  0  0  0  0  0  0  0  0  0  0
   -0.5651    0.0951   29.3520 H   0  0  0  0  0  0  0  0  0  0  0  0
    3.3101   -2.8230   30.8707 H   0  0  0  0  0  0  0  0  0  0  0  0
    4.4592   -1.4854   30.8936 H   0  0  0  0  0  0  0  0  0  0  0  0
    3.2036   -0.1691   32.4141 H   0  0  0  0  0  0  0  0  0  0  0  0
    4.6145   -1.8746   33.4028 H   0  0  0  0  0  0  0  0  0  0  0  0
  1  2  1  0
  2  3  1  0
  3  4  1  0
  4  5  1  0
  5  6  1  0
  6  7  1  0
  4  8  1  0
  8  9  1  0
  9 10  1  0
 10 11  1  0
 11 12  2  0
 11 13  1  0
 13 14  1  0
 14 15  1  0
 15 16  1  0
 16 17  1  0
 17 18  1  0
 18 19  1  0
 19 20  1  0
 20 21  1  0
 21 22  1  0
 22 23  1  0
 23 24  1  0
 22 25  1  0
 25 26  1  0
 16 27  1  0
 27 28  1  0
 28 29  1  0
 10  8  1  0
 28 13  1  0
 19 15  1  0
 26 19  1  0
  1 30  1  0
  1 31  1  0
  1 32  1  0
  2 33  1  0
  2 34  1  0
  3 35  1  0
  3 36  1  0
  4 37  1  0
  5 38  1  0
  6 39  1  0
  7 40  1  0
  7 41  1  0
  7 42  1  0
  9 43  1  0
  9 44  1  0
 10 45  1  0
 14 46  1  0
 14 47  1  0
 15 48  1  0
 16 49  1  0
 17 50  1  0
 17 51  1  0
 18 52  1  0
 18 53  1  0
 20 54  1  0
 20 55  1  0
 21 56  1  0
 21 57  1  0
 22 58  1  0
 23 59  1  0
 23 60  1  0
 24 61  1  0
 25 62  1  0
 25 63  1  0
 26 64  1  0
 26 65  1  0
 27 66  1  0
 27 67  1  0
 28 68  1  0
 29 69  1  0
M  END
>  <Energy>  (381) 
169.07974159993458

>  <compound_id>  (381) 
4084

>  <target_id>  (381) 
1

>  <reference_id>  (381) 
158

>  <inspiration_ids>  (381) 
[142, 158]

>  <energy_score>  (381) 
-11.37517635665074

>  <distance_score>  (381) 
2.357373201849937

>  <path>  (381) 
/opt/xchem-fragalysis-2/maxwin/BulkDock/SCRATCH/505735/C4084-P158/C4084-P158.minimised.mol

>  <scratch_subdir>  (381) 
/opt/xchem-fragalysis-2/maxwin/BulkDock/SCRATCH/505735/C4084-P158

>  <fragmenstein_runtime>  (381) 
22.89336633682251

>  <fragmenstein_outcome>  (381) 
too moved

>  <fragmenstein_mode>  (381) 
expansion

>  <fragmenstein_error>  (381) 


$$$$
C4085-P142
     RDKit          3D

 65 69  0  0  0  0  0  0  0  0999 V2000
   -0.8225   -5.4750   33.7983 O   0  0  0  0  0  0  0  0  0  0  0  0
    0.1022   -4.7432   33.8561 C   0  0  0  0  0  0  0  0  0  0  0  0
    1.1023   -4.8055   35.1061 C   0  0  0  0  0  0  0  0  0  0  0  0
    1.7181   -3.4382   35.4358 C   0  0  0  0  0  0  0  0  0  0  0  0
    0.7346   -2.4772   36.0983 C   0  0  0  0  0  0  0  0  0  0  0  0
   -0.6467   -3.0792   36.3800 C   0  0  0  0  0  0  0  0  0  0  0  0
   -1.6899   -1.8493   37.1789 S   0  0  0  0  0  0  0  0  0  0  0  0
   -1.7335   -0.6634   36.3426 O   0  0  0  0  0  0  0  0  0  0  0  0
   -2.9195   -2.4651   37.6359 O   0  0  0  0  0  0  0  0  0  0  0  0
   -0.9276   -1.3906   38.4980 F   0  0  0  0  0  0  0  0  0  0  0  0
   -0.6278   -4.4856   37.0604 C   0  0  0  0  0  0  0  0  0  0  0  0
   -0.5044   -4.4094   38.5864 C   0  0  0  0  0  0  0  0  0  0  0  0
    0.7366   -3.7943   38.8916 O   0  0  0  0  0  0  0  0  0  0  0  0
    1.8563   -4.6272   38.5980 C   0  0  0  0  0  0  0  0  0  0  0  0
    1.6275   -5.7153   37.5300 C   0  0  0  0  0  0  0  0  0  0  0  0
    1.1913   -6.9560   38.2045 N   0  0  0  0  0  0  0  0  0  0  0  0
    0.7229   -7.7632   37.1505 N   0  0  0  0  0  0  0  0  0  0  0  0
   -0.0360   -6.8782   36.2635 C   0  0  0  0  0  0  0  0  0  0  0  0
    0.5029   -5.4305   36.4627 C   0  0  0  0  0  0  0  0  0  0  0  0
    0.5580   -3.6336   32.8855 N   0  0  0  0  0  0  0  0  0  0  0  0
    1.5111   -4.1781   31.8391 C   0  0  0  0  0  0  0  0  0  0  0  0
    2.5280   -3.1814   31.2611 C   0  0  0  0  0  0  0  0  0  0  0  0
    1.8456   -2.2623   30.2757 C   0  0  0  0  0  0  0  0  0  0  0  0
    0.5408   -1.8091   30.9173 C   0  0  0  0  0  0  0  0  0  0  0  0
   -0.2306   -0.9576   29.9051 C   0  0  0  0  0  0  0  0  0  0  0  0
   -0.0241    0.4376   29.9042 C   0  0  0  0  0  0  0  0  0  0  0  0
   -0.6228    1.2829   28.9544 C   0  0  0  0  0  0  0  0  0  0  0  0
   -1.4502    0.7685   27.9575 C   0  0  0  0  0  0  0  0  0  0  0  0
   -2.1880    1.6705   26.9892 C   0  0  0  0  0  0  0  0  0  0  0  0
   -1.4722    2.8739   26.7222 O   0  0  0  0  0  0  0  0  0  0  0  0
   -1.6445   -0.6223   27.9424 C   0  0  0  0  0  0  0  0  0  0  0  0
   -1.0458   -1.4754   28.8953 C   0  0  0  0  0  0  0  0  0  0  0  0
   -0.1243   -3.0687   31.5847 C   0  0  0  0  0  0  0  0  0  0  0  0
    1.9111   -5.4688   34.7688 H   0  0  0  0  0  0  0  0  0  0  0  0
    2.5806   -3.5777   36.0962 H   0  0  0  0  0  0  0  0  0  0  0  0
    2.1542   -2.9594   34.5527 H   0  0  0  0  0  0  0  0  0  0  0  0
    1.1786   -2.0780   37.0176 H   0  0  0  0  0  0  0  0  0  0  0  0
    0.6162   -1.6038   35.4437 H   0  0  0  0  0  0  0  0  0  0  0  0
   -1.1569   -3.2010   35.4159 H   0  0  0  0  0  0  0  0  0  0  0  0
   -1.6096   -4.9249   36.8474 H   0  0  0  0  0  0  0  0  0  0  0  0
   -0.5933   -5.3867   39.0724 H   0  0  0  0  0  0  0  0  0  0  0  0
   -1.2954   -3.8051   39.0346 H   0  0  0  0  0  0  0  0  0  0  0  0
    2.6651   -3.9612   38.2805 H   0  0  0  0  0  0  0  0  0  0  0  0
    2.2027   -5.0683   39.5410 H   0  0  0  0  0  0  0  0  0  0  0  0
    2.5850   -5.9323   37.0362 H   0  0  0  0  0  0  0  0  0  0  0  0
    1.9709   -7.3887   38.7072 H   0  0  0  0  0  0  0  0  0  0  0  0
    0.1435   -8.5709   37.4356 H   0  0  0  0  0  0  0  0  0  0  0  0
    0.1139   -7.2385   35.2417 H   0  0  0  0  0  0  0  0  0  0  0  0
   -1.1037   -6.9536   36.4806 H   0  0  0  0  0  0  0  0  0  0  0  0
    1.0780   -4.8865   31.1117 H   0  0  0  0  0  0  0  0  0  0  0  0
    2.1419   -4.8659   32.4249 H   0  0  0  0  0  0  0  0  0  0  0  0
    2.9770   -2.5981   32.0742 H   0  0  0  0  0  0  0  0  0  0  0  0
    3.3403   -3.7210   30.7612 H   0  0  0  0  0  0  0  0  0  0  0  0
    2.4939   -1.4156   30.0225 H   0  0  0  0  0  0  0  0  0  0  0  0
    1.6500   -2.8082   29.3434 H   0  0  0  0  0  0  0  0  0  0  0  0
    0.7902   -1.1451   31.7591 H   0  0  0  0  0  0  0  0  0  0  0  0
    0.6281    0.8928   30.6479 H   0  0  0  0  0  0  0  0  0  0  0  0
   -0.4362    2.3548   29.0002 H   0  0  0  0  0  0  0  0  0  0  0  0
   -2.3529    1.1599   26.0364 H   0  0  0  0  0  0  0  0  0  0  0  0
   -3.1570    1.9433   27.4118 H   0  0  0  0  0  0  0  0  0  0  0  0
   -2.1425    3.5289   26.4544 H   0  0  0  0  0  0  0  0  0  0  0  0
   -2.2688   -1.0743   27.1717 H   0  0  0  0  0  0  0  0  0  0  0  0
   -1.2230   -2.5444   28.8012 H   0  0  0  0  0  0  0  0  0  0  0  0
   -1.0699   -2.6931   32.0081 H   0  0  0  0  0  0  0  0  0  0  0  0
   -0.5064   -3.8344   30.8883 H   0  0  0  0  0  0  0  0  0  0  0  0
  1  2  2  0
  2  3  1  0
  3  4  1  0
  4  5  1  0
  5  6  1  0
  6  7  1  0
  7  8  2  0
  7  9  2  0
  7 10  1  0
  6 11  1  0
 11 12  1  0
 12 13  1  0
 13 14  1  0
 14 15  1  0
 15 16  1  0
 16 17  1  0
 17 18  1  0
 18 19  1  0
  2 20  1  0
 20 21  1  0
 21 22  1  0
 22 23  1  0
 23 24  1  0
 24 25  1  0
 25 26  2  0
 26 27  1  0
 27 28  2  0
 28 29  1  0
 29 30  1  0
 28 31  1  0
 31 32  2  0
 24 33  1  0
 19  3  1  0
 33 20  1  0
 19 11  1  0
 32 25  1  0
 19 15  1  0
  3 34  1  0
  4 35  1  0
  4 36  1  0
  5 37  1  0
  5 38  1  0
  6 39  1  0
 11 40  1  0
 12 41  1  0
 12 42  1  0
 14 43  1  0
 14 44  1  0
 15 45  1  0
 16 46  1  0
 17 47  1  0
 18 48  1  0
 18 49  1  0
 21 50  1  0
 21 51  1  0
 22 52  1  0
 22 53  1  0
 23 54  1  0
 23 55  1  0
 24 56  1  0
 26 57  1  0
 27 58  1  0
 29 59  1  0
 29 60  1  0
 30 61  1  0
 31 62  1  0
 32 63  1  0
 33 64  1  0
 33 65  1  0
M  END
>  <Energy>  (382) 
197.67629365312013

>  <compound_id>  (382) 
4085

>  <target_id>  (382) 
1

>  <reference_id>  (382) 
142

>  <inspiration_ids>  (382) 
[142, 159]

>  <energy_score>  (382) 
-5.9627623280482

>  <distance_score>  (382) 
1.7352485604630852

>  <path>  (382) 
/opt/xchem-fragalysis-2/maxwin/BulkDock/SCRATCH/505735/C4085-P142/C4085-P142.minimised.mol

>  <scratch_subdir>  (382) 
/opt/xchem-fragalysis-2/maxwin/BulkDock/SCRATCH/505735/C4085-P142

>  <fragmenstein_runtime>  (382) 
6.178367614746094

>  <fragmenstein_outcome>  (382) 
too moved

>  <fragmenstein_mode>  (382) 
expansion

>  <fragmenstein_error>  (382) 


$$$$
C4085-P159
     RDKit          3D

 65 69  0  0  0  0  0  0  0  0999 V2000
   -0.5840   -5.6508   33.7846 O   0  0  0  0  0  0  0  0  0  0  0  0
    0.0574   -4.6819   33.9960 C   0  0  0  0  0  0  0  0  0  0  0  0
    0.6393   -4.3062   35.4136 C   0  0  0  0  0  0  0  0  0  0  0  0
   -0.2694   -3.1626   35.9413 C   0  0  0  0  0  0  0  0  0  0  0  0
    0.3029   -2.4580   37.1656 C   0  0  0  0  0  0  0  0  0  0  0  0
    0.6301   -3.4373   38.2889 C   0  0  0  0  0  0  0  0  0  0  0  0
    1.3424   -2.5797   39.6973 S   0  0  0  0  0  0  0  0  0  0  0  0
    0.3852   -1.6065   40.1805 O   0  0  0  0  0  0  0  0  0  0  0  0
    1.9494   -3.5549   40.5787 O   0  0  0  0  0  0  0  0  0  0  0  0
    2.5545   -1.7229   39.1223 F   0  0  0  0  0  0  0  0  0  0  0  0
    1.4966   -4.6184   37.7980 C   0  0  0  0  0  0  0  0  0  0  0  0
    2.9558   -4.1996   37.4756 C   0  0  0  0  0  0  0  0  0  0  0  0
    3.5094   -4.8968   36.3591 O   0  0  0  0  0  0  0  0  0  0  0  0
    3.2572   -6.2944   36.4224 C   0  0  0  0  0  0  0  0  0  0  0  0
    1.7588   -6.5832   36.2463 C   0  0  0  0  0  0  0  0  0  0  0  0
    1.3134   -7.6934   37.1159 N   0  0  0  0  0  0  0  0  0  0  0  0
    0.0827   -7.2942   37.7569 N   0  0  0  0  0  0  0  0  0  0  0  0
   -0.4130   -6.1315   37.0124 C   0  0  0  0  0  0  0  0  0  0  0  0
    0.8481   -5.3788   36.5761 C   0  0  0  0  0  0  0  0  0  0  0  0
    0.4215   -3.4943   33.0609 N   0  0  0  0  0  0  0  0  0  0  0  0
    1.7263   -3.7585   32.3186 C   0  0  0  0  0  0  0  0  0  0  0  0
    2.5550   -2.5541   31.8566 C   0  0  0  0  0  0  0  0  0  0  0  0
    1.8706   -1.8625   30.7018 C   0  0  0  0  0  0  0  0  0  0  0  0
    0.3998   -1.7431   31.0869 C   0  0  0  0  0  0  0  0  0  0  0  0
   -0.3222   -0.9348   30.0109 C   0  0  0  0  0  0  0  0  0  0  0  0
   -0.1454    0.4684   30.0417 C   0  0  0  0  0  0  0  0  0  0  0  0
   -0.6777    1.3169   29.0638 C   0  0  0  0  0  0  0  0  0  0  0  0
   -1.4360    0.8045   28.0166 C   0  0  0  0  0  0  0  0  0  0  0  0
   -1.9552    1.7155   26.9284 C   0  0  0  0  0  0  0  0  0  0  0  0
   -2.3148    3.0011   27.4148 O   0  0  0  0  0  0  0  0  0  0  0  0
   -1.5909   -0.5911   27.9593 C   0  0  0  0  0  0  0  0  0  0  0  0
   -1.0537   -1.4538   28.9444 C   0  0  0  0  0  0  0  0  0  0  0  0
   -0.0396   -3.1717   31.5914 C   0  0  0  0  0  0  0  0  0  0  0  0
    1.6197   -3.8651   35.2005 H   0  0  0  0  0  0  0  0  0  0  0  0
   -0.4380   -2.4026   35.1693 H   0  0  0  0  0  0  0  0  0  0  0  0
   -1.2626   -3.5636   36.1791 H   0  0  0  0  0  0  0  0  0  0  0  0
    1.1942   -1.8905   36.8732 H   0  0  0  0  0  0  0  0  0  0  0  0
   -0.4215   -1.7141   37.5194 H   0  0  0  0  0  0  0  0  0  0  0  0
   -0.3121   -3.8344   38.6863 H   0  0  0  0  0  0  0  0  0  0  0  0
    1.5787   -5.3155   38.6431 H   0  0  0  0  0  0  0  0  0  0  0  0
    3.6012   -4.3674   38.3458 H   0  0  0  0  0  0  0  0  0  0  0  0
    3.0313   -3.1380   37.2285 H   0  0  0  0  0  0  0  0  0  0  0  0
    3.8247   -6.7839   35.6234 H   0  0  0  0  0  0  0  0  0  0  0  0
    3.6567   -6.6784   37.3694 H   0  0  0  0  0  0  0  0  0  0  0  0
    1.5832   -6.8936   35.2084 H   0  0  0  0  0  0  0  0  0  0  0  0
    2.0191   -8.0020   37.7906 H   0  0  0  0  0  0  0  0  0  0  0  0
    0.2058   -7.0691   38.7488 H   0  0  0  0  0  0  0  0  0  0  0  0
   -0.9852   -6.4858   36.1484 H   0  0  0  0  0  0  0  0  0  0  0  0
   -1.0919   -5.5394   37.6284 H   0  0  0  0  0  0  0  0  0  0  0  0
    1.6875   -4.5948   31.5989 H   0  0  0  0  0  0  0  0  0  0  0  0
    2.3585   -4.2133   33.0978 H   0  0  0  0  0  0  0  0  0  0  0  0
    2.6793   -1.8552   32.6931 H   0  0  0  0  0  0  0  0  0  0  0  0
    3.5567   -2.8793   31.5546 H   0  0  0  0  0  0  0  0  0  0  0  0
    2.3399   -0.8898   30.5151 H   0  0  0  0  0  0  0  0  0  0  0  0
    1.9805   -2.4569   29.7854 H   0  0  0  0  0  0  0  0  0  0  0  0
    0.3360   -1.1137   31.9895 H   0  0  0  0  0  0  0  0  0  0  0  0
    0.4504    0.9228   30.8327 H   0  0  0  0  0  0  0  0  0  0  0  0
   -0.4812    2.3872   29.1165 H   0  0  0  0  0  0  0  0  0  0  0  0
   -1.1556    1.8741   26.2033 H   0  0  0  0  0  0  0  0  0  0  0  0
   -2.8069    1.2847   26.4009 H   0  0  0  0  0  0  0  0  0  0  0  0
   -3.1302    2.9058   27.9441 H   0  0  0  0  0  0  0  0  0  0  0  0
   -2.1077   -1.0408   27.1119 H   0  0  0  0  0  0  0  0  0  0  0  0
   -1.1961   -2.5251   28.8223 H   0  0  0  0  0  0  0  0  0  0  0  0
   -1.1294   -3.1012   31.7351 H   0  0  0  0  0  0  0  0  0  0  0  0
    0.0243   -3.9949   30.8607 H   0  0  0  0  0  0  0  0  0  0  0  0
  1  2  2  0
  2  3  1  0
  3  4  1  0
  4  5  1  0
  5  6  1  0
  6  7  1  0
  7  8  2  0
  7  9  2  0
  7 10  1  0
  6 11  1  0
 11 12  1  0
 12 13  1  0
 13 14  1  0
 14 15  1  0
 15 16  1  0
 16 17  1  0
 17 18  1  0
 18 19  1  0
  2 20  1  0
 20 21  1  0
 21 22  1  0
 22 23  1  0
 23 24  1  0
 24 25  1  0
 25 26  2  0
 26 27  1  0
 27 28  2  0
 28 29  1  0
 29 30  1  0
 28 31  1  0
 31 32  2  0
 24 33  1  0
 19  3  1  0
 33 20  1  0
 19 11  1  0
 32 25  1  0
 19 15  1  0
  3 34  1  0
  4 35  1  0
  4 36  1  0
  5 37  1  0
  5 38  1  0
  6 39  1  0
 11 40  1  0
 12 41  1  0
 12 42  1  0
 14 43  1  0
 14 44  1  0
 15 45  1  0
 16 46  1  0
 17 47  1  0
 18 48  1  0
 18 49  1  0
 21 50  1  0
 21 51  1  0
 22 52  1  0
 22 53  1  0
 23 54  1  0
 23 55  1  0
 24 56  1  0
 26 57  1  0
 27 58  1  0
 29 59  1  0
 29 60  1  0
 30 61  1  0
 31 62  1  0
 32 63  1  0
 33 64  1  0
 33 65  1  0
M  END
>  <Energy>  (383) 
201.1388913774833

>  <compound_id>  (383) 
4085

>  <target_id>  (383) 
1

>  <reference_id>  (383) 
159

>  <inspiration_ids>  (383) 
[142, 159]

>  <energy_score>  (383) 
-2.500164603683686

>  <distance_score>  (383) 
1.8575888657463244

>  <path>  (383) 
/opt/xchem-fragalysis-2/maxwin/BulkDock/SCRATCH/505735/C4085-P159/C4085-P159.minimised.mol

>  <scratch_subdir>  (383) 
/opt/xchem-fragalysis-2/maxwin/BulkDock/SCRATCH/505735/C4085-P159

>  <fragmenstein_runtime>  (383) 
6.961071014404297

>  <fragmenstein_outcome>  (383) 
too moved

>  <fragmenstein_mode>  (383) 
expansion

>  <fragmenstein_error>  (383) 


$$$$
C4086-P142
     RDKit          3D

 49 52  0  0  0  0  0  0  0  0999 V2000
    0.8277   -4.4280   29.0544 O   0  0  0  0  0  0  0  0  0  0  0  0
   -0.7282   -4.0810   29.5144 S   0  0  0  0  0  0  0  0  0  0  0  0
   -0.9539   -4.1382   31.2214 N   0  0  0  0  0  0  0  0  0  0  0  0
    0.2103   -4.1578   32.1533 C   0  0  0  0  0  0  0  0  0  0  0  0
    0.9502   -2.8540   32.1186 N   0  0  0  0  0  0  0  0  0  0  0  0
    2.3562   -2.9363   31.7119 C   0  0  0  0  0  0  0  0  0  0  0  0
    2.9975   -1.5608   31.5086 C   0  0  0  0  0  0  0  0  0  0  0  0
    2.3181   -0.7415   30.4041 C   0  0  0  0  0  0  0  0  0  0  0  0
    0.8606   -1.1799   30.1803 C   0  0  0  0  0  0  0  0  0  0  0  0
    0.0084   -0.2141   29.3625 C   0  0  0  0  0  0  0  0  0  0  0  0
    0.0321    1.1693   29.5492 C   0  0  0  0  0  0  0  0  0  0  0  0
   -0.7020    2.0282   28.7093 C   0  0  0  0  0  0  0  0  0  0  0  0
   -1.5123    1.5353   27.6810 C   0  0  0  0  0  0  0  0  0  0  0  0
   -2.3606    2.4268   26.8076 C   0  0  0  0  0  0  0  0  0  0  0  0
   -1.8448    3.7516   26.7648 O   0  0  0  0  0  0  0  0  0  0  0  0
   -1.5630    0.1547   27.5102 C   0  0  0  0  0  0  0  0  0  0  0  0
   -0.8052   -0.6970   28.3222 C   0  0  0  0  0  0  0  0  0  0  0  0
    0.2566   -1.6585   31.5406 C   0  0  0  0  0  0  0  0  0  0  0  0
   -0.3821   -4.3392   33.6242 C   0  0  0  0  0  0  0  0  0  0  0  0
   -0.6561   -5.8017   34.1077 C   0  0  0  0  0  0  0  0  0  0  0  0
   -0.7332   -6.7533   32.9804 C   0  0  0  0  0  0  0  0  0  0  0  0
   -1.5561   -7.7359   32.6997 N   0  0  0  0  0  0  0  0  0  0  0  0
   -1.2481   -8.1910   31.4301 N   0  0  0  0  0  0  0  0  0  0  0  0
   -0.2285   -7.4875   30.9946 C   0  0  0  0  0  0  0  0  0  0  0  0
    0.1444   -6.6104   31.9520 N   0  0  0  0  0  0  0  0  0  0  0  0
    1.0377   -5.4689   31.8930 C   0  0  0  0  0  0  0  0  0  0  0  0
    2.9226   -3.4669   32.4859 H   0  0  0  0  0  0  0  0  0  0  0  0
    2.4780   -3.4925   30.7776 H   0  0  0  0  0  0  0  0  0  0  0  0
    2.9523   -1.0012   32.4523 H   0  0  0  0  0  0  0  0  0  0  0  0
    4.0622   -1.6754   31.2735 H   0  0  0  0  0  0  0  0  0  0  0  0
    2.3989    0.3171   30.6728 H   0  0  0  0  0  0  0  0  0  0  0  0
    2.8743   -0.8548   29.4643 H   0  0  0  0  0  0  0  0  0  0  0  0
    0.9719   -2.0464   29.5292 H   0  0  0  0  0  0  0  0  0  0  0  0
    0.6349    1.6197   30.3330 H   0  0  0  0  0  0  0  0  0  0  0  0
   -0.6427    3.1046   28.8717 H   0  0  0  0  0  0  0  0  0  0  0  0
   -2.3777    2.0488   25.7804 H   0  0  0  0  0  0  0  0  0  0  0  0
   -3.3840    2.4509   27.1892 H   0  0  0  0  0  0  0  0  0  0  0  0
   -2.5955    4.3359   26.5408 H   0  0  0  0  0  0  0  0  0  0  0  0
   -2.1716   -0.2827   26.7202 H   0  0  0  0  0  0  0  0  0  0  0  0
   -0.8440   -1.7497   28.0722 H   0  0  0  0  0  0  0  0  0  0  0  0
    0.3827   -0.8428   32.2671 H   0  0  0  0  0  0  0  0  0  0  0  0
   -0.8310   -1.7713   31.4821 H   0  0  0  0  0  0  0  0  0  0  0  0
    0.3196   -3.9032   34.3498 H   0  0  0  0  0  0  0  0  0  0  0  0
   -1.2981   -3.7435   33.7185 H   0  0  0  0  0  0  0  0  0  0  0  0
    0.1794   -6.1104   34.7504 H   0  0  0  0  0  0  0  0  0  0  0  0
   -1.5414   -5.8521   34.7415 H   0  0  0  0  0  0  0  0  0  0  0  0
    0.2421   -7.5840   30.0304 H   0  0  0  0  0  0  0  0  0  0  0  0
    1.5560   -5.5117   30.9360 H   0  0  0  0  0  0  0  0  0  0  0  0
    1.7969   -5.6210   32.6710 H   0  0  0  0  0  0  0  0  0  0  0  0
  1  2  2  0
  2  3  2  0
  3  4  1  0
  4  5  1  0
  5  6  1  0
  6  7  1  0
  7  8  1  0
  8  9  1  0
  9 10  1  0
 10 11  2  0
 11 12  1  0
 12 13  2  0
 13 14  1  0
 14 15  1  0
 13 16  1  0
 16 17  2  0
  9 18  1  0
  4 19  1  0
 19 20  1  0
 20 21  1  0
 21 22  2  0
 22 23  1  0
 23 24  2  0
 24 25  1  0
 25 26  1  0
 26  4  1  0
 18  5  1  0
 25 21  1  0
 17 10  1  0
  6 27  1  0
  6 28  1  0
  7 29  1  0
  7 30  1  0
  8 31  1  0
  8 32  1  0
  9 33  1  0
 11 34  1  0
 12 35  1  0
 14 36  1  0
 14 37  1  0
 15 38  1  0
 16 39  1  0
 17 40  1  0
 18 41  1  0
 18 42  1  0
 19 43  1  0
 19 44  1  0
 20 45  1  0
 20 46  1  0
 24 47  1  0
 26 48  1  0
 26 49  1  0
M  END
>  <Energy>  (384) 
31.146653758382872

>  <compound_id>  (384) 
4086

>  <target_id>  (384) 
1

>  <reference_id>  (384) 
142

>  <inspiration_ids>  (384) 
[142, 162]

>  <energy_score>  (384) 
-130.68614494774658

>  <distance_score>  (384) 
1.489796886654985

>  <path>  (384) 
/opt/xchem-fragalysis-2/maxwin/BulkDock/SCRATCH/505735/C4086-P142/C4086-P142.minimised.mol

>  <scratch_subdir>  (384) 
/opt/xchem-fragalysis-2/maxwin/BulkDock/SCRATCH/505735/C4086-P142

>  <fragmenstein_runtime>  (384) 
3.7810728549957275

>  <fragmenstein_outcome>  (384) 
too moved

>  <fragmenstein_mode>  (384) 
expansion

>  <fragmenstein_error>  (384) 


$$$$
C4086-P162
     RDKit          3D

 49 52  0  0  0  0  0  0  0  0999 V2000
    0.8890   -4.4845   29.0615 O   0  0  0  0  0  0  0  0  0  0  0  0
   -0.6455   -4.0957   29.5538 S   0  0  0  0  0  0  0  0  0  0  0  0
   -0.8546   -4.1585   31.2649 N   0  0  0  0  0  0  0  0  0  0  0  0
    0.3304   -4.1701   32.1735 C   0  0  0  0  0  0  0  0  0  0  0  0
    1.0705   -2.8684   32.1063 N   0  0  0  0  0  0  0  0  0  0  0  0
    2.4659   -2.9597   31.6690 C   0  0  0  0  0  0  0  0  0  0  0  0
    3.1071   -1.5877   31.4456 C   0  0  0  0  0  0  0  0  0  0  0  0
    2.4054   -0.7681   30.3553 C   0  0  0  0  0  0  0  0  0  0  0  0
    0.9435   -1.2064   30.1595 C   0  0  0  0  0  0  0  0  0  0  0  0
    0.0710   -0.2493   29.3517 C   0  0  0  0  0  0  0  0  0  0  0  0
    0.1440    1.1383   29.4806 C   0  0  0  0  0  0  0  0  0  0  0  0
   -0.6046    1.9820   28.6421 C   0  0  0  0  0  0  0  0  0  0  0  0
   -1.4979    1.4723   27.6923 C   0  0  0  0  0  0  0  0  0  0  0  0
   -2.3787    2.3486   26.8398 C   0  0  0  0  0  0  0  0  0  0  0  0
   -1.9174    3.6922   26.8125 O   0  0  0  0  0  0  0  0  0  0  0  0
   -1.5937    0.0893   27.5732 C   0  0  0  0  0  0  0  0  0  0  0  0
   -0.8084   -0.7479   28.3723 C   0  0  0  0  0  0  0  0  0  0  0  0
    0.3663   -1.6762   31.5352 C   0  0  0  0  0  0  0  0  0  0  0  0
   -0.2234   -4.3297   33.6643 C   0  0  0  0  0  0  0  0  0  0  0  0
   -0.4220   -5.7877   34.1982 C   0  0  0  0  0  0  0  0  0  0  0  0
   -0.5707   -6.7567   33.0938 C   0  0  0  0  0  0  0  0  0  0  0  0
   -1.3990   -7.7514   32.8790 N   0  0  0  0  0  0  0  0  0  0  0  0
   -1.1764   -8.2066   31.5906 N   0  0  0  0  0  0  0  0  0  0  0  0
   -0.1934   -7.4977   31.0826 C   0  0  0  0  0  0  0  0  0  0  0  0
    0.2417   -6.6207   32.0122 N   0  0  0  0  0  0  0  0  0  0  0  0
    1.1423   -5.4884   31.9012 C   0  0  0  0  0  0  0  0  0  0  0  0
    3.0475   -3.4880   32.4332 H   0  0  0  0  0  0  0  0  0  0  0  0
    2.5648   -3.5221   30.7357 H   0  0  0  0  0  0  0  0  0  0  0  0
    3.0869   -1.0250   32.3884 H   0  0  0  0  0  0  0  0  0  0  0  0
    4.1655   -1.7073   31.1857 H   0  0  0  0  0  0  0  0  0  0  0  0
    2.4929    0.2893   30.6253 H   0  0  0  0  0  0  0  0  0  0  0  0
    2.9431   -0.8799   29.4046 H   0  0  0  0  0  0  0  0  0  0  0  0
    1.0451   -2.0752   29.5095 H   0  0  0  0  0  0  0  0  0  0  0  0
    0.8023    1.6027   30.2093 H   0  0  0  0  0  0  0  0  0  0  0  0
   -0.4924    3.0613   28.7463 H   0  0  0  0  0  0  0  0  0  0  0  0
   -2.3782    1.9869   25.8092 H   0  0  0  0  0  0  0  0  0  0  0  0
   -3.4005    2.3259   27.2279 H   0  0  0  0  0  0  0  0  0  0  0  0
   -2.6862    4.2364   26.5635 H   0  0  0  0  0  0  0  0  0  0  0  0
   -2.2459   -0.3629   26.8274 H   0  0  0  0  0  0  0  0  0  0  0  0
   -0.8775   -1.8056   28.1550 H   0  0  0  0  0  0  0  0  0  0  0  0
    0.5084   -0.8559   32.2536 H   0  0  0  0  0  0  0  0  0  0  0  0
   -0.7224   -1.7877   31.5003 H   0  0  0  0  0  0  0  0  0  0  0  0
    0.4750   -3.8444   34.3612 H   0  0  0  0  0  0  0  0  0  0  0  0
   -1.1593   -3.7669   33.7604 H   0  0  0  0  0  0  0  0  0  0  0  0
    0.4767   -6.0651   34.7662 H   0  0  0  0  0  0  0  0  0  0  0  0
   -1.2403   -5.8477   34.9160 H   0  0  0  0  0  0  0  0  0  0  0  0
    0.2191   -7.5975   30.0921 H   0  0  0  0  0  0  0  0  0  0  0  0
    1.6281   -5.5534   30.9289 H   0  0  0  0  0  0  0  0  0  0  0  0
    1.9282   -5.6340   32.6538 H   0  0  0  0  0  0  0  0  0  0  0  0
  1  2  2  0
  2  3  2  0
  3  4  1  0
  4  5  1  0
  5  6  1  0
  6  7  1  0
  7  8  1  0
  8  9  1  0
  9 10  1  0
 10 11  2  0
 11 12  1  0
 12 13  2  0
 13 14  1  0
 14 15  1  0
 13 16  1  0
 16 17  2  0
  9 18  1  0
  4 19  1  0
 19 20  1  0
 20 21  1  0
 21 22  2  0
 22 23  1  0
 23 24  2  0
 24 25  1  0
 25 26  1  0
 26  4  1  0
 18  5  1  0
 25 21  1  0
 17 10  1  0
  6 27  1  0
  6 28  1  0
  7 29  1  0
  7 30  1  0
  8 31  1  0
  8 32  1  0
  9 33  1  0
 11 34  1  0
 12 35  1  0
 14 36  1  0
 14 37  1  0
 15 38  1  0
 16 39  1  0
 17 40  1  0
 18 41  1  0
 18 42  1  0
 19 43  1  0
 19 44  1  0
 20 45  1  0
 20 46  1  0
 24 47  1  0
 26 48  1  0
 26 49  1  0
M  END
>  <Energy>  (385) 
33.10164651222177

>  <compound_id>  (385) 
4086

>  <target_id>  (385) 
1

>  <reference_id>  (385) 
162

>  <inspiration_ids>  (385) 
[142, 162]

>  <energy_score>  (385) 
-128.73115219390763

>  <distance_score>  (385) 
1.5162584579902072

>  <path>  (385) 
/opt/xchem-fragalysis-2/maxwin/BulkDock/SCRATCH/505735/C4086-P162/C4086-P162.minimised.mol

>  <scratch_subdir>  (385) 
/opt/xchem-fragalysis-2/maxwin/BulkDock/SCRATCH/505735/C4086-P162

>  <fragmenstein_runtime>  (385) 
4.24874472618103

>  <fragmenstein_outcome>  (385) 
too moved

>  <fragmenstein_mode>  (385) 
expansion

>  <fragmenstein_error>  (385) 


$$$$
C4058-P142
     RDKit          3D

 49 53  0  0  0  0  0  0  0  0999 V2000
    0.5525   -3.7678   28.6134 O   0  0  0  0  0  0  0  0  0  0  0  0
   -0.7676   -3.2767   29.1307 S   0  0  0  0  0  0  0  0  0  0  0  0
   -0.9261   -3.4755   30.8011 N   0  0  0  0  0  0  0  0  0  0  0  0
    0.0634   -4.0644   31.7852 C   0  0  0  0  0  0  0  0  0  0  0  0
   -0.7386   -4.3317   33.1551 C   0  0  0  0  0  0  0  0  0  0  0  0
   -0.6623   -5.7522   33.7580 C   0  0  0  0  0  0  0  0  0  0  0  0
   -0.8680   -6.7338   32.6810 C   0  0  0  0  0  0  0  0  0  0  0  0
   -1.6203   -7.8021   32.5817 N   0  0  0  0  0  0  0  0  0  0  0  0
   -1.4137   -8.3361   31.3255 N   0  0  0  0  0  0  0  0  0  0  0  0
   -0.5186   -7.5911   30.7195 C   0  0  0  0  0  0  0  0  0  0  0  0
   -0.2135   -6.5454   31.5074 N   0  0  0  0  0  0  0  0  0  0  0  0
    0.6749   -5.4315   31.3023 C   0  0  0  0  0  0  0  0  0  0  0  0
    1.0811   -3.0426   32.2015 N   0  0  0  0  0  0  0  0  0  0  0  0
    2.4991   -3.2820   31.8278 C   0  0  0  0  0  0  0  0  0  0  0  0
    3.3544   -1.9850   31.6798 C   0  0  0  0  0  0  0  0  0  0  0  0
    2.7304   -0.9442   30.7123 C   0  0  0  0  0  0  0  0  0  0  0  0
    1.2718   -1.3323   30.5241 C   0  0  0  0  0  0  0  0  0  0  0  0
    0.6995   -1.6572   31.9064 C   0  0  0  0  0  0  0  0  0  0  0  0
    0.2848   -0.6195   29.6679 C   0  0  0  0  0  0  0  0  0  0  0  0
    0.3450    0.7684   29.5069 C   0  0  0  0  0  0  0  0  0  0  0  0
   -0.5186    1.4157   28.6287 C   0  0  0  0  0  0  0  0  0  0  0  0
   -1.4460    0.6940   27.8705 C   0  0  0  0  0  0  0  0  0  0  0  0
   -2.3311    1.4408   26.8883 C   0  0  0  0  0  0  0  0  0  0  0  0
   -1.6630    2.5733   26.3305 O   0  0  0  0  0  0  0  0  0  0  0  0
   -1.5444   -0.7094   28.0789 C   0  0  0  0  0  0  0  0  0  0  0  0
   -0.7037   -1.3837   28.9976 C   0  0  0  0  0  0  0  0  0  0  0  0
   -1.5329   -2.8107   31.2676 H   0  0  0  0  0  0  0  0  0  0  0  0
   -0.4459   -3.6154   33.9355 H   0  0  0  0  0  0  0  0  0  0  0  0
   -1.7882   -4.0981   32.9645 H   0  0  0  0  0  0  0  0  0  0  0  0
   -1.3953   -5.8819   34.5575 H   0  0  0  0  0  0  0  0  0  0  0  0
    0.3265   -5.9038   34.2075 H   0  0  0  0  0  0  0  0  0  0  0  0
   -0.0864   -7.7924   29.7567 H   0  0  0  0  0  0  0  0  0  0  0  0
    1.5647   -5.6865   31.8926 H   0  0  0  0  0  0  0  0  0  0  0  0
    0.9867   -5.4258   30.2565 H   0  0  0  0  0  0  0  0  0  0  0  0
    2.5802   -3.8156   30.8734 H   0  0  0  0  0  0  0  0  0  0  0  0
    2.9595   -3.9176   32.5928 H   0  0  0  0  0  0  0  0  0  0  0  0
    3.4732   -1.5255   32.6697 H   0  0  0  0  0  0  0  0  0  0  0  0
    4.3633   -2.2440   31.3385 H   0  0  0  0  0  0  0  0  0  0  0  0
    3.2577   -0.9558   29.7508 H   0  0  0  0  0  0  0  0  0  0  0  0
    2.8421    0.0645   31.1251 H   0  0  0  0  0  0  0  0  0  0  0  0
    1.4353   -2.2382   29.9451 H   0  0  0  0  0  0  0  0  0  0  0  0
    1.1413   -0.9990   32.6685 H   0  0  0  0  0  0  0  0  0  0  0  0
   -0.3696   -1.4534   32.0271 H   0  0  0  0  0  0  0  0  0  0  0  0
    1.0882    1.3599   30.0360 H   0  0  0  0  0  0  0  0  0  0  0  0
   -0.4376    2.4951   28.5030 H   0  0  0  0  0  0  0  0  0  0  0  0
   -2.6308    0.7851   26.0671 H   0  0  0  0  0  0  0  0  0  0  0  0
   -3.2183    1.8143   27.4004 H   0  0  0  0  0  0  0  0  0  0  0  0
   -2.3638    3.1400   25.9594 H   0  0  0  0  0  0  0  0  0  0  0  0
   -2.2454   -1.2897   27.4792 H   0  0  0  0  0  0  0  0  0  0  0  0
  1  2  2  0
  2  3  1  0
  3  4  1  0
  4  5  1  0
  5  6  1  0
  6  7  1  0
  7  8  2  0
  8  9  1  0
  9 10  2  0
 10 11  1  0
 11 12  1  0
  4 13  1  0
 13 14  1  0
 14 15  1  0
 15 16  1  0
 16 17  1  0
 17 18  1  0
 17 19  1  0
 19 20  2  0
 20 21  1  0
 21 22  2  0
 22 23  1  0
 23 24  1  0
 22 25  1  0
 25 26  2  0
 26  2  1  0
 12  4  1  0
 18 13  1  0
 26 19  1  0
 11  7  1  0
  3 27  1  0
  5 28  1  0
  5 29  1  0
  6 30  1  0
  6 31  1  0
 10 32  1  0
 12 33  1  0
 12 34  1  0
 14 35  1  0
 14 36  1  0
 15 37  1  0
 15 38  1  0
 16 39  1  0
 16 40  1  0
 17 41  1  0
 18 42  1  0
 18 43  1  0
 20 44  1  0
 21 45  1  0
 23 46  1  0
 23 47  1  0
 24 48  1  0
 25 49  1  0
M  END
>  <Energy>  (386) 
65.087912220771571

>  <compound_id>  (386) 
4058

>  <target_id>  (386) 
1

>  <reference_id>  (386) 
142

>  <inspiration_ids>  (386) 
[142, 163]

>  <energy_score>  (386) 
-82.11080112852454

>  <distance_score>  (386) 
1.5715261741142001

>  <path>  (386) 
/opt/xchem-fragalysis-2/maxwin/BulkDock/SCRATCH/505735/C4058-P142/C4058-P142.minimised.mol

>  <scratch_subdir>  (386) 
/opt/xchem-fragalysis-2/maxwin/BulkDock/SCRATCH/505735/C4058-P142

>  <fragmenstein_runtime>  (386) 
4.256157398223877

>  <fragmenstein_outcome>  (386) 
too moved

>  <fragmenstein_mode>  (386) 
expansion

>  <fragmenstein_error>  (386) 


$$$$
C4058-P163
     RDKit          3D

 49 53  0  0  0  0  0  0  0  0999 V2000
    0.5266   -3.7864   28.6016 O   0  0  0  0  0  0  0  0  0  0  0  0
   -0.7785   -3.2689   29.1302 S   0  0  0  0  0  0  0  0  0  0  0  0
   -0.9277   -3.4728   30.8019 N   0  0  0  0  0  0  0  0  0  0  0  0
    0.0596   -4.0840   31.7753 C   0  0  0  0  0  0  0  0  0  0  0  0
   -0.7387   -4.3400   33.1489 C   0  0  0  0  0  0  0  0  0  0  0  0
   -0.6231   -5.7447   33.7796 C   0  0  0  0  0  0  0  0  0  0  0  0
   -0.8466   -6.7507   32.7278 C   0  0  0  0  0  0  0  0  0  0  0  0
   -1.5819   -7.8347   32.6745 N   0  0  0  0  0  0  0  0  0  0  0  0
   -1.4062   -8.3897   31.4219 N   0  0  0  0  0  0  0  0  0  0  0  0
   -0.5423   -7.6427   30.7736 C   0  0  0  0  0  0  0  0  0  0  0  0
   -0.2329   -6.5741   31.5300 N   0  0  0  0  0  0  0  0  0  0  0  0
    0.6459   -5.4608   31.2810 C   0  0  0  0  0  0  0  0  0  0  0  0
    1.0969   -3.0824   32.1919 N   0  0  0  0  0  0  0  0  0  0  0  0
    2.5090   -3.3402   31.8069 C   0  0  0  0  0  0  0  0  0  0  0  0
    3.3829   -2.0554   31.6611 C   0  0  0  0  0  0  0  0  0  0  0  0
    2.7683   -1.0005   30.7036 C   0  0  0  0  0  0  0  0  0  0  0  0
    1.3027   -1.3658   30.5244 C   0  0  0  0  0  0  0  0  0  0  0  0
    0.7357   -1.6889   31.9089 C   0  0  0  0  0  0  0  0  0  0  0  0
    0.3221   -0.6321   29.6794 C   0  0  0  0  0  0  0  0  0  0  0  0
    0.4018    0.7565   29.5308 C   0  0  0  0  0  0  0  0  0  0  0  0
   -0.4522    1.4241   28.6592 C   0  0  0  0  0  0  0  0  0  0  0  0
   -1.3877    0.7218   27.8940 C   0  0  0  0  0  0  0  0  0  0  0  0
   -2.2640    1.4901   26.9214 C   0  0  0  0  0  0  0  0  0  0  0  0
   -1.5961    2.6303   26.3817 O   0  0  0  0  0  0  0  0  0  0  0  0
   -1.5035   -0.6833   28.0884 C   0  0  0  0  0  0  0  0  0  0  0  0
   -0.6770   -1.3769   29.0046 C   0  0  0  0  0  0  0  0  0  0  0  0
   -1.5170   -2.7978   31.2761 H   0  0  0  0  0  0  0  0  0  0  0  0
   -0.4665   -3.5984   33.9130 H   0  0  0  0  0  0  0  0  0  0  0  0
   -1.7941   -4.1388   32.9534 H   0  0  0  0  0  0  0  0  0  0  0  0
   -1.3318   -5.8687   34.6018 H   0  0  0  0  0  0  0  0  0  0  0  0
    0.3801   -5.8730   34.2035 H   0  0  0  0  0  0  0  0  0  0  0  0
   -0.1307   -7.8575   29.8042 H   0  0  0  0  0  0  0  0  0  0  0  0
    1.5572   -5.7161   31.8374 H   0  0  0  0  0  0  0  0  0  0  0  0
    0.9181   -5.4653   30.2243 H   0  0  0  0  0  0  0  0  0  0  0  0
    2.5750   -3.8691   30.8485 H   0  0  0  0  0  0  0  0  0  0  0  0
    2.9651   -3.9871   32.5649 H   0  0  0  0  0  0  0  0  0  0  0  0
    3.5148   -1.6035   32.6528 H   0  0  0  0  0  0  0  0  0  0  0  0
    4.3856   -2.3276   31.3118 H   0  0  0  0  0  0  0  0  0  0  0  0
    3.2882   -1.0153   29.7381 H   0  0  0  0  0  0  0  0  0  0  0  0
    2.8985    0.0043   31.1205 H   0  0  0  0  0  0  0  0  0  0  0  0
    1.4470   -2.2712   29.9388 H   0  0  0  0  0  0  0  0  0  0  0  0
    1.1939   -1.0428   32.6717 H   0  0  0  0  0  0  0  0  0  0  0  0
   -0.3290   -1.4683   32.0388 H   0  0  0  0  0  0  0  0  0  0  0  0
    1.1547    1.3319   30.0641 H   0  0  0  0  0  0  0  0  0  0  0  0
   -0.3543    2.5030   28.5420 H   0  0  0  0  0  0  0  0  0  0  0  0
   -2.5523    0.8497   26.0880 H   0  0  0  0  0  0  0  0  0  0  0  0
   -3.1570    1.8528   27.4312 H   0  0  0  0  0  0  0  0  0  0  0  0
   -2.2971    3.2156   26.0410 H   0  0  0  0  0  0  0  0  0  0  0  0
   -2.2056   -1.2521   27.4804 H   0  0  0  0  0  0  0  0  0  0  0  0
  1  2  2  0
  2  3  1  0
  3  4  1  0
  4  5  1  0
  5  6  1  0
  6  7  1  0
  7  8  2  0
  8  9  1  0
  9 10  2  0
 10 11  1  0
 11 12  1  0
  4 13  1  0
 13 14  1  0
 14 15  1  0
 15 16  1  0
 16 17  1  0
 17 18  1  0
 17 19  1  0
 19 20  2  0
 20 21  1  0
 21 22  2  0
 22 23  1  0
 23 24  1  0
 22 25  1  0
 25 26  2  0
 26  2  1  0
 12  4  1  0
 18 13  1  0
 26 19  1  0
 11  7  1  0
  3 27  1  0
  5 28  1  0
  5 29  1  0
  6 30  1  0
  6 31  1  0
 10 32  1  0
 12 33  1  0
 12 34  1  0
 14 35  1  0
 14 36  1  0
 15 37  1  0
 15 38  1  0
 16 39  1  0
 16 40  1  0
 17 41  1  0
 18 42  1  0
 18 43  1  0
 20 44  1  0
 21 45  1  0
 23 46  1  0
 23 47  1  0
 24 48  1  0
 25 49  1  0
M  END
>  <Energy>  (387) 
65.299549033082471

>  <compound_id>  (387) 
4058

>  <target_id>  (387) 
1

>  <reference_id>  (387) 
163

>  <inspiration_ids>  (387) 
[142, 163]

>  <energy_score>  (387) 
-81.89916431621342

>  <distance_score>  (387) 
1.5860894665326943

>  <path>  (387) 
/opt/xchem-fragalysis-2/maxwin/BulkDock/SCRATCH/505735/C4058-P163/C4058-P163.minimised.mol

>  <scratch_subdir>  (387) 
/opt/xchem-fragalysis-2/maxwin/BulkDock/SCRATCH/505735/C4058-P163

>  <fragmenstein_runtime>  (387) 
3.591557025909424

>  <fragmenstein_outcome>  (387) 
too moved

>  <fragmenstein_mode>  (387) 
expansion

>  <fragmenstein_error>  (387) 


$$$$
C4058-P142
     RDKit          2D

  0  0  0  0  0  0  0  0  0  0999 V2000
M  END
>  <compound_id>  (388) 
4058

>  <target_id>  (388) 
1

>  <reference_id>  (388) 
142

>  <inspiration_ids>  (388) 
[142, 164]

>  <energy_score>  (388) 
nan

>  <distance_score>  (388) 
nan

>  <path>  (388) 
/opt/xchem-fragalysis-2/maxwin/BulkDock/SCRATCH/505735/C4058-P142/C4058-P142.minimised.mol

>  <scratch_subdir>  (388) 
/opt/xchem-fragalysis-2/maxwin/BulkDock/SCRATCH/505735/C4058-P142

>  <fragmenstein_runtime>  (388) 
0.6375477313995361

>  <fragmenstein_outcome>  (388) 
too distant

>  <fragmenstein_mode>  (388) 
expansion

>  <fragmenstein_error>  (388) 
DistanceError: hit0+hit1

$$$$
C4058-P142
     RDKit          3D

 49 53  0  0  0  0  0  0  0  0999 V2000
   -0.0169   -3.1759   28.1459 O   0  0  0  0  0  0  0  0  0  0  0  0
   -1.1987   -2.6404   28.8928 S   0  0  0  0  0  0  0  0  0  0  0  0
   -1.1791   -3.0340   30.5412 N   0  0  0  0  0  0  0  0  0  0  0  0
   -0.1003   -3.8255   31.2328 C   0  0  0  0  0  0  0  0  0  0  0  0
    0.3934   -4.8590   30.1724 C   0  0  0  0  0  0  0  0  0  0  0  0
    0.8693   -6.1813   30.6762 C   0  0  0  0  0  0  0  0  0  0  0  0
   -0.1887   -6.7813   31.4749 C   0  0  0  0  0  0  0  0  0  0  0  0
   -0.7059   -7.9834   31.4567 N   0  0  0  0  0  0  0  0  0  0  0  0
   -1.4807   -8.0846   32.5849 N   0  0  0  0  0  0  0  0  0  0  0  0
   -1.4174   -6.9328   33.2212 C   0  0  0  0  0  0  0  0  0  0  0  0
   -0.8008   -6.0323   32.4226 N   0  0  0  0  0  0  0  0  0  0  0  0
   -0.6599   -4.5965   32.5308 C   0  0  0  0  0  0  0  0  0  0  0  0
    0.9009   -2.8868   31.8484 N   0  0  0  0  0  0  0  0  0  0  0  0
    2.3421   -3.1398   31.5982 C   0  0  0  0  0  0  0  0  0  0  0  0
    3.2196   -1.8558   31.4738 C   0  0  0  0  0  0  0  0  0  0  0  0
    2.6457   -0.7966   30.4914 C   0  0  0  0  0  0  0  0  0  0  0  0
    1.1603   -1.0841   30.2942 C   0  0  0  0  0  0  0  0  0  0  0  0
    0.5992   -1.4640   31.6644 C   0  0  0  0  0  0  0  0  0  0  0  0
    0.1997   -0.2239   29.5321 C   0  0  0  0  0  0  0  0  0  0  0  0
    0.3875    1.1533   29.3919 C   0  0  0  0  0  0  0  0  0  0  0  0
   -0.4497    1.9067   28.5616 C   0  0  0  0  0  0  0  0  0  0  0  0
   -1.4685    1.3012   27.8208 C   0  0  0  0  0  0  0  0  0  0  0  0
   -2.3485    2.0839   26.8707 C   0  0  0  0  0  0  0  0  0  0  0  0
   -1.8304    3.3872   26.6275 O   0  0  0  0  0  0  0  0  0  0  0  0
   -1.6694   -0.0784   27.9917 C   0  0  0  0  0  0  0  0  0  0  0  0
   -0.8979   -0.8398   28.8893 C   0  0  0  0  0  0  0  0  0  0  0  0
   -1.7328   -2.4812   31.1823 H   0  0  0  0  0  0  0  0  0  0  0  0
    1.1645   -4.4548   29.5131 H   0  0  0  0  0  0  0  0  0  0  0  0
   -0.4510   -5.1254   29.5251 H   0  0  0  0  0  0  0  0  0  0  0  0
    1.7728   -6.0533   31.2766 H   0  0  0  0  0  0  0  0  0  0  0  0
    1.0824   -6.8137   29.8145 H   0  0  0  0  0  0  0  0  0  0  0  0
   -1.8228   -6.7191   34.1995 H   0  0  0  0  0  0  0  0  0  0  0  0
    0.0049   -4.4487   33.3933 H   0  0  0  0  0  0  0  0  0  0  0  0
   -1.6294   -4.1811   32.8155 H   0  0  0  0  0  0  0  0  0  0  0  0
    2.5296   -3.6980   30.6809 H   0  0  0  0  0  0  0  0  0  0  0  0
    2.7289   -3.7562   32.4176 H   0  0  0  0  0  0  0  0  0  0  0  0
    3.3194   -1.4005   32.4680 H   0  0  0  0  0  0  0  0  0  0  0  0
    4.2350   -2.1293   31.1640 H   0  0  0  0  0  0  0  0  0  0  0  0
    3.1719   -0.8470   29.5304 H   0  0  0  0  0  0  0  0  0  0  0  0
    2.8206    0.2069   30.8951 H   0  0  0  0  0  0  0  0  0  0  0  0
    1.2461   -1.9625   29.6488 H   0  0  0  0  0  0  0  0  0  0  0  0
    1.0849   -0.8831   32.4623 H   0  0  0  0  0  0  0  0  0  0  0  0
   -0.4505   -1.2005   31.8285 H   0  0  0  0  0  0  0  0  0  0  0  0
    1.2081    1.6592   29.8944 H   0  0  0  0  0  0  0  0  0  0  0  0
   -0.2713    2.9773   28.4634 H   0  0  0  0  0  0  0  0  0  0  0  0
   -2.4162    1.5675   25.9086 H   0  0  0  0  0  0  0  0  0  0  0  0
   -3.3512    2.1810   27.2914 H   0  0  0  0  0  0  0  0  0  0  0  0
   -2.5920    3.9520   26.3967 H   0  0  0  0  0  0  0  0  0  0  0  0
   -2.4057   -0.5879   27.3717 H   0  0  0  0  0  0  0  0  0  0  0  0
  1  2  2  0
  2  3  1  0
  3  4  1  0
  4  5  1  0
  5  6  1  0
  6  7  1  0
  7  8  2  0
  8  9  1  0
  9 10  2  0
 10 11  1  0
 11 12  1  0
  4 13  1  0
 13 14  1  0
 14 15  1  0
 15 16  1  0
 16 17  1  0
 17 18  1  0
 17 19  1  0
 19 20  2  0
 20 21  1  0
 21 22  2  0
 22 23  1  0
 23 24  1  0
 22 25  1  0
 25 26  2  0
 26  2  1  0
 12  4  1  0
 18 13  1  0
 26 19  1  0
 11  7  1  0
  3 27  1  0
  5 28  1  0
  5 29  1  0
  6 30  1  0
  6 31  1  0
 10 32  1  0
 12 33  1  0
 12 34  1  0
 14 35  1  0
 14 36  1  0
 15 37  1  0
 15 38  1  0
 16 39  1  0
 16 40  1  0
 17 41  1  0
 18 42  1  0
 18 43  1  0
 20 44  1  0
 21 45  1  0
 23 46  1  0
 23 47  1  0
 24 48  1  0
 25 49  1  0
M  END
>  <Energy>  (389) 
78.734507297137256

>  <compound_id>  (389) 
4058

>  <target_id>  (389) 
1

>  <reference_id>  (389) 
142

>  <inspiration_ids>  (389) 
[142, 165]

>  <energy_score>  (389) 
-68.46420605215974

>  <distance_score>  (389) 
1.1235151018303506

>  <path>  (389) 
/opt/xchem-fragalysis-2/maxwin/BulkDock/SCRATCH/505735/C4058-P142/C4058-P142.minimised.mol

>  <scratch_subdir>  (389) 
/opt/xchem-fragalysis-2/maxwin/BulkDock/SCRATCH/505735/C4058-P142

>  <fragmenstein_runtime>  (389) 
3.3978896141052246

>  <fragmenstein_outcome>  (389) 
too moved

>  <fragmenstein_mode>  (389) 
expansion

>  <fragmenstein_error>  (389) 


$$$$
C4058-P165
     RDKit          3D

 49 53  0  0  0  0  0  0  0  0999 V2000
    0.2578   -3.2385   28.1904 O   0  0  0  0  0  0  0  0  0  0  0  0
   -0.9704   -2.7303   28.8810 S   0  0  0  0  0  0  0  0  0  0  0  0
   -1.0235   -3.1333   30.5253 N   0  0  0  0  0  0  0  0  0  0  0  0
    0.0382   -3.9062   31.2617 C   0  0  0  0  0  0  0  0  0  0  0  0
    0.5946   -4.9459   30.2303 C   0  0  0  0  0  0  0  0  0  0  0  0
    1.0345   -6.2788   30.7556 C   0  0  0  0  0  0  0  0  0  0  0  0
   -0.0833   -6.8640   31.4892 C   0  0  0  0  0  0  0  0  0  0  0  0
   -0.6430   -8.0461   31.4180 N   0  0  0  0  0  0  0  0  0  0  0  0
   -1.4999   -8.1358   32.4883 N   0  0  0  0  0  0  0  0  0  0  0  0
   -1.4390   -6.9956   33.1446 C   0  0  0  0  0  0  0  0  0  0  0  0
   -0.7383   -6.1077   32.4033 N   0  0  0  0  0  0  0  0  0  0  0  0
   -0.5620   -4.6786   32.5397 C   0  0  0  0  0  0  0  0  0  0  0  0
    0.9958   -2.9478   31.9142 N   0  0  0  0  0  0  0  0  0  0  0  0
    2.4494   -3.1688   31.7114 C   0  0  0  0  0  0  0  0  0  0  0  0
    3.3046   -1.8657   31.6363 C   0  0  0  0  0  0  0  0  0  0  0  0
    2.7483   -0.8057   30.6451 C   0  0  0  0  0  0  0  0  0  0  0  0
    1.2801   -1.1240   30.3851 C   0  0  0  0  0  0  0  0  0  0  0  0
    0.6708   -1.5292   31.7277 C   0  0  0  0  0  0  0  0  0  0  0  0
    0.3358   -0.2811   29.5860 C   0  0  0  0  0  0  0  0  0  0  0  0
    0.5037    1.0996   29.4500 C   0  0  0  0  0  0  0  0  0  0  0  0
   -0.3156    1.8384   28.5885 C   0  0  0  0  0  0  0  0  0  0  0  0
   -1.2994    1.2163   27.8166 C   0  0  0  0  0  0  0  0  0  0  0  0
   -2.1739    1.9898   26.8523 C   0  0  0  0  0  0  0  0  0  0  0  0
   -1.6731    3.3023   26.6223 O   0  0  0  0  0  0  0  0  0  0  0  0
   -1.4712   -0.1698   27.9760 C   0  0  0  0  0  0  0  0  0  0  0  0
   -0.7191   -0.9198   28.8987 C   0  0  0  0  0  0  0  0  0  0  0  0
   -1.6074   -2.5833   31.1411 H   0  0  0  0  0  0  0  0  0  0  0  0
    1.3955   -4.5435   29.6069 H   0  0  0  0  0  0  0  0  0  0  0  0
   -0.2168   -5.2082   29.5405 H   0  0  0  0  0  0  0  0  0  0  0  0
    1.9102   -6.1707   31.4024 H   0  0  0  0  0  0  0  0  0  0  0  0
    1.2927   -6.9128   29.9050 H   0  0  0  0  0  0  0  0  0  0  0  0
   -1.8979   -6.7786   34.0979 H   0  0  0  0  0  0  0  0  0  0  0  0
    0.1008   -4.5675   33.4095 H   0  0  0  0  0  0  0  0  0  0  0  0
   -1.5230   -4.2418   32.8257 H   0  0  0  0  0  0  0  0  0  0  0  0
    2.6802   -3.7085   30.7931 H   0  0  0  0  0  0  0  0  0  0  0  0
    2.8197   -3.7899   32.5349 H   0  0  0  0  0  0  0  0  0  0  0  0
    3.3566   -1.4213   32.6390 H   0  0  0  0  0  0  0  0  0  0  0  0
    4.3366   -2.1151   31.3631 H   0  0  0  0  0  0  0  0  0  0  0  0
    3.3142   -0.8315   29.7059 H   0  0  0  0  0  0  0  0  0  0  0  0
    2.8837    0.1959   31.0683 H   0  0  0  0  0  0  0  0  0  0  0  0
    1.4141   -1.9955   29.7388 H   0  0  0  0  0  0  0  0  0  0  0  0
    1.1116   -0.9460   32.5495 H   0  0  0  0  0  0  0  0  0  0  0  0
   -0.3897   -1.2879   31.8509 H   0  0  0  0  0  0  0  0  0  0  0  0
    1.2953    1.6208   29.9826 H   0  0  0  0  0  0  0  0  0  0  0  0
   -0.1546    2.9125   28.4987 H   0  0  0  0  0  0  0  0  0  0  0  0
   -2.2113    1.4766   25.8875 H   0  0  0  0  0  0  0  0  0  0  0  0
   -3.1878    2.0670   27.2488 H   0  0  0  0  0  0  0  0  0  0  0  0
   -2.4471    3.8753   26.4641 H   0  0  0  0  0  0  0  0  0  0  0  0
   -2.1658   -0.6975   27.3274 H   0  0  0  0  0  0  0  0  0  0  0  0
  1  2  2  0
  2  3  1  0
  3  4  1  0
  4  5  1  0
  5  6  1  0
  6  7  1  0
  7  8  2  0
  8  9  1  0
  9 10  2  0
 10 11  1  0
 11 12  1  0
  4 13  1  0
 13 14  1  0
 14 15  1  0
 15 16  1  0
 16 17  1  0
 17 18  1  0
 17 19  1  0
 19 20  2  0
 20 21  1  0
 21 22  2  0
 22 23  1  0
 23 24  1  0
 22 25  1  0
 25 26  2  0
 26  2  1  0
 12  4  1  0
 18 13  1  0
 26 19  1  0
 11  7  1  0
  3 27  1  0
  5 28  1  0
  5 29  1  0
  6 30  1  0
  6 31  1  0
 10 32  1  0
 12 33  1  0
 12 34  1  0
 14 35  1  0
 14 36  1  0
 15 37  1  0
 15 38  1  0
 16 39  1  0
 16 40  1  0
 17 41  1  0
 18 42  1  0
 18 43  1  0
 20 44  1  0
 21 45  1  0
 23 46  1  0
 23 47  1  0
 24 48  1  0
 25 49  1  0
M  END
>  <Energy>  (390) 
78.449787331689777

>  <compound_id>  (390) 
4058

>  <target_id>  (390) 
1

>  <reference_id>  (390) 
165

>  <inspiration_ids>  (390) 
[142, 165]

>  <energy_score>  (390) 
-68.74892601760797

>  <distance_score>  (390) 
1.1667246122475738

>  <path>  (390) 
/opt/xchem-fragalysis-2/maxwin/BulkDock/SCRATCH/505735/C4058-P165/C4058-P165.minimised.mol

>  <scratch_subdir>  (390) 
/opt/xchem-fragalysis-2/maxwin/BulkDock/SCRATCH/505735/C4058-P165

>  <fragmenstein_runtime>  (390) 
5.317376613616943

>  <fragmenstein_outcome>  (390) 
too moved

>  <fragmenstein_mode>  (390) 
expansion

>  <fragmenstein_error>  (390) 


$$$$
C4087-P142
     RDKit          3D

 49 52  0  0  0  0  0  0  0  0999 V2000
   -1.3949   -7.7161   33.5871 C   0  0  0  0  0  0  0  0  0  0  0  0
   -0.9215   -7.2789   32.2869 C   0  0  0  0  0  0  0  0  0  0  0  0
   -0.9965   -7.9430   31.1592 N   0  0  0  0  0  0  0  0  0  0  0  0
   -0.3903   -7.1843   30.2090 N   0  0  0  0  0  0  0  0  0  0  0  0
    0.0130   -6.0565   30.7639 C   0  0  0  0  0  0  0  0  0  0  0  0
   -0.3072   -6.0831   32.0880 N   0  0  0  0  0  0  0  0  0  0  0  0
   -0.1040   -5.0495   33.0712 C   0  0  0  0  0  0  0  0  0  0  0  0
   -0.5830   -3.6726   32.5927 C   0  0  0  0  0  0  0  0  0  0  0  0
   -0.5847   -2.8327   33.7119 O   0  0  0  0  0  0  0  0  0  0  0  0
   -1.9515   -3.7327   32.2517 O   0  0  0  0  0  0  0  0  0  0  0  0
    0.2439   -2.9868   31.6190 N   0  0  0  0  0  0  0  0  0  0  0  0
   -0.5153   -2.0994   30.7208 C   0  0  0  0  0  0  0  0  0  0  0  0
    0.4272   -1.1651   29.9395 C   0  0  0  0  0  0  0  0  0  0  0  0
   -0.3221   -0.2129   29.0379 C   0  0  0  0  0  0  0  0  0  0  0  0
   -0.1506    1.1680   29.1910 C   0  0  0  0  0  0  0  0  0  0  0  0
   -0.8418    2.0703   28.3783 C   0  0  0  0  0  0  0  0  0  0  0  0
   -1.7027    1.6173   27.3762 C   0  0  0  0  0  0  0  0  0  0  0  0
   -2.5238    2.5604   26.5361 C   0  0  0  0  0  0  0  0  0  0  0  0
   -1.9422    3.8585   26.5081 O   0  0  0  0  0  0  0  0  0  0  0  0
   -1.8484    0.2379   27.2098 C   0  0  0  0  0  0  0  0  0  0  0  0
   -1.1814   -0.6680   28.0364 C   0  0  0  0  0  0  0  0  0  0  0  0
    1.4810   -1.9640   29.1700 C   0  0  0  0  0  0  0  0  0  0  0  0
    2.2110   -2.8944   30.1286 C   0  0  0  0  0  0  0  0  0  0  0  0
    1.2521   -3.8070   30.9240 C   0  0  0  0  0  0  0  0  0  0  0  0
    0.6686   -4.9268   30.0360 C   0  0  0  0  0  0  0  0  0  0  0  0
   -1.9083   -6.9332   34.1457 H   0  0  0  0  0  0  0  0  0  0  0  0
   -0.5653   -8.0603   34.2085 H   0  0  0  0  0  0  0  0  0  0  0  0
   -2.1163   -8.5209   33.4617 H   0  0  0  0  0  0  0  0  0  0  0  0
   -0.6536   -5.3053   33.9816 H   0  0  0  0  0  0  0  0  0  0  0  0
    0.9495   -5.0578   33.3728 H   0  0  0  0  0  0  0  0  0  0  0  0
   -0.2272   -2.0062   33.3467 H   0  0  0  0  0  0  0  0  0  0  0  0
   -2.3633   -3.7139   33.1472 H   0  0  0  0  0  0  0  0  0  0  0  0
   -1.1949   -1.4665   31.3082 H   0  0  0  0  0  0  0  0  0  0  0  0
   -1.1448   -2.6846   30.0393 H   0  0  0  0  0  0  0  0  0  0  0  0
    0.9629   -0.5623   30.6886 H   0  0  0  0  0  0  0  0  0  0  0  0
    0.5177    1.5649   29.9513 H   0  0  0  0  0  0  0  0  0  0  0  0
   -0.7101    3.1397   28.5362 H   0  0  0  0  0  0  0  0  0  0  0  0
   -2.5791    2.2034   25.5033 H   0  0  0  0  0  0  0  0  0  0  0  0
   -3.5360    2.6270   26.9448 H   0  0  0  0  0  0  0  0  0  0  0  0
   -2.6783    4.4916   26.3897 H   0  0  0  0  0  0  0  0  0  0  0  0
   -2.4866   -0.1552   26.4225 H   0  0  0  0  0  0  0  0  0  0  0  0
   -1.3402   -1.7307   27.8642 H   0  0  0  0  0  0  0  0  0  0  0  0
    1.0211   -2.5495   28.3654 H   0  0  0  0  0  0  0  0  0  0  0  0
    2.2011   -1.2882   28.6924 H   0  0  0  0  0  0  0  0  0  0  0  0
    2.9359   -3.5000   29.5714 H   0  0  0  0  0  0  0  0  0  0  0  0
    2.7955   -2.2890   30.8348 H   0  0  0  0  0  0  0  0  0  0  0  0
    1.9082   -4.2734   31.6698 H   0  0  0  0  0  0  0  0  0  0  0  0
   -0.0493   -4.5156   29.3185 H   0  0  0  0  0  0  0  0  0  0  0  0
    1.4838   -5.3602   29.4421 H   0  0  0  0  0  0  0  0  0  0  0  0
  1  2  1  0
  2  3  2  0
  3  4  1  0
  4  5  2  0
  5  6  1  0
  6  7  1  0
  7  8  1  0
  8  9  1  0
  8 10  1  0
  8 11  1  0
 11 12  1  0
 12 13  1  0
 13 14  1  0
 14 15  2  0
 15 16  1  0
 16 17  2  0
 17 18  1  0
 18 19  1  0
 17 20  1  0
 20 21  2  0
 13 22  1  0
 22 23  1  0
 23 24  1  0
 24 25  1  0
  6  2  1  0
 24 11  1  0
 25  5  1  0
 21 14  1  0
  1 26  1  0
  1 27  1  0
  1 28  1  0
  7 29  1  0
  7 30  1  0
  9 31  1  0
 10 32  1  0
 12 33  1  0
 12 34  1  0
 13 35  1  0
 15 36  1  0
 16 37  1  0
 18 38  1  0
 18 39  1  0
 19 40  1  0
 20 41  1  0
 21 42  1  0
 22 43  1  0
 22 44  1  0
 23 45  1  0
 23 46  1  0
 24 47  1  0
 25 48  1  0
 25 49  1  0
M  END
>  <Energy>  (391) 
-22.893432024296988

>  <compound_id>  (391) 
4087

>  <target_id>  (391) 
1

>  <reference_id>  (391) 
142

>  <inspiration_ids>  (391) 
[142, 167]

>  <energy_score>  (391) 
-48.57369511843041

>  <distance_score>  (391) 
1.6452073920825572

>  <path>  (391) 
/opt/xchem-fragalysis-2/maxwin/BulkDock/SCRATCH/505735/C4087-P142/C4087-P142.minimised.mol

>  <scratch_subdir>  (391) 
/opt/xchem-fragalysis-2/maxwin/BulkDock/SCRATCH/505735/C4087-P142

>  <fragmenstein_runtime>  (391) 
7.773621082305908

>  <fragmenstein_outcome>  (391) 
too moved

>  <fragmenstein_mode>  (391) 
expansion

>  <fragmenstein_error>  (391) 


$$$$
C4087-P167
     RDKit          3D

 49 52  0  0  0  0  0  0  0  0999 V2000
   -1.1901   -7.8752   33.1832 C   0  0  0  0  0  0  0  0  0  0  0  0
   -0.6046   -7.3300   31.9651 C   0  0  0  0  0  0  0  0  0  0  0  0
   -0.5726   -7.9306   30.7997 N   0  0  0  0  0  0  0  0  0  0  0  0
    0.1094   -7.1267   29.9465 N   0  0  0  0  0  0  0  0  0  0  0  0
    0.4417   -6.0195   30.5793 C   0  0  0  0  0  0  0  0  0  0  0  0
    0.0095   -6.1139   31.8739 N   0  0  0  0  0  0  0  0  0  0  0  0
    0.0362   -5.0675   32.8689 C   0  0  0  0  0  0  0  0  0  0  0  0
   -0.4716   -3.7256   32.3032 C   0  0  0  0  0  0  0  0  0  0  0  0
   -0.7871   -2.9116   33.3967 O   0  0  0  0  0  0  0  0  0  0  0  0
   -1.6783   -3.9581   31.6060 O   0  0  0  0  0  0  0  0  0  0  0  0
    0.4556   -2.9498   31.4959 N   0  0  0  0  0  0  0  0  0  0  0  0
   -0.2228   -1.9792   30.6166 C   0  0  0  0  0  0  0  0  0  0  0  0
    0.7250   -0.9921   29.9321 C   0  0  0  0  0  0  0  0  0  0  0  0
   -0.0764   -0.0594   29.0472 C   0  0  0  0  0  0  0  0  0  0  0  0
   -0.0699    1.3184   29.2883 C   0  0  0  0  0  0  0  0  0  0  0  0
   -0.8608    2.1831   28.5232 C   0  0  0  0  0  0  0  0  0  0  0  0
   -1.6617    1.6973   27.4851 C   0  0  0  0  0  0  0  0  0  0  0  0
   -2.5621    2.5977   26.6813 C   0  0  0  0  0  0  0  0  0  0  0  0
   -2.0067    3.9024   26.5745 O   0  0  0  0  0  0  0  0  0  0  0  0
   -1.6655    0.3223   27.2500 C   0  0  0  0  0  0  0  0  0  0  0  0
   -0.8893   -0.5439   28.0185 C   0  0  0  0  0  0  0  0  0  0  0  0
    1.8158   -1.7596   29.1840 C   0  0  0  0  0  0  0  0  0  0  0  0
    2.5160   -2.7174   30.1464 C   0  0  0  0  0  0  0  0  0  0  0  0
    1.5524   -3.6963   30.8606 C   0  0  0  0  0  0  0  0  0  0  0  0
    1.1042   -4.8402   29.9248 C   0  0  0  0  0  0  0  0  0  0  0  0
   -1.7687   -7.1443   33.7432 H   0  0  0  0  0  0  0  0  0  0  0  0
   -0.4084   -8.2455   33.8510 H   0  0  0  0  0  0  0  0  0  0  0  0
   -1.8625   -8.7029   32.9431 H   0  0  0  0  0  0  0  0  0  0  0  0
   -0.5928   -5.3687   33.7103 H   0  0  0  0  0  0  0  0  0  0  0  0
    1.0490   -5.0010   33.2811 H   0  0  0  0  0  0  0  0  0  0  0  0
   -0.4767   -2.0342   33.1352 H   0  0  0  0  0  0  0  0  0  0  0  0
   -1.4276   -4.0399   30.6757 H   0  0  0  0  0  0  0  0  0  0  0  0
   -0.9597   -1.4002   31.1897 H   0  0  0  0  0  0  0  0  0  0  0  0
   -0.7837   -2.5064   29.8376 H   0  0  0  0  0  0  0  0  0  0  0  0
    1.2122   -0.3956   30.7167 H   0  0  0  0  0  0  0  0  0  0  0  0
    0.5392    1.7416   30.0834 H   0  0  0  0  0  0  0  0  0  0  0  0
   -0.8529    3.2502   28.7423 H   0  0  0  0  0  0  0  0  0  0  0  0
   -2.6853    2.2122   25.6650 H   0  0  0  0  0  0  0  0  0  0  0  0
   -3.5445    2.6585   27.1559 H   0  0  0  0  0  0  0  0  0  0  0  0
   -2.7571    4.5118   26.4397 H   0  0  0  0  0  0  0  0  0  0  0  0
   -2.2643   -0.1032   26.4495 H   0  0  0  0  0  0  0  0  0  0  0  0
   -0.9400   -1.6042   27.7857 H   0  0  0  0  0  0  0  0  0  0  0  0
    1.3973   -2.3260   28.3446 H   0  0  0  0  0  0  0  0  0  0  0  0
    2.5465   -1.0614   28.7583 H   0  0  0  0  0  0  0  0  0  0  0  0
    3.2886   -3.2768   29.6053 H   0  0  0  0  0  0  0  0  0  0  0  0
    3.0437   -2.1249   30.9065 H   0  0  0  0  0  0  0  0  0  0  0  0
    2.1702   -4.1426   31.6507 H   0  0  0  0  0  0  0  0  0  0  0  0
    0.4289   -4.4527   29.1530 H   0  0  0  0  0  0  0  0  0  0  0  0
    1.9839   -5.2270   29.3936 H   0  0  0  0  0  0  0  0  0  0  0  0
  1  2  1  0
  2  3  2  0
  3  4  1  0
  4  5  2  0
  5  6  1  0
  6  7  1  0
  7  8  1  0
  8  9  1  0
  8 10  1  0
  8 11  1  0
 11 12  1  0
 12 13  1  0
 13 14  1  0
 14 15  2  0
 15 16  1  0
 16 17  2  0
 17 18  1  0
 18 19  1  0
 17 20  1  0
 20 21  2  0
 13 22  1  0
 22 23  1  0
 23 24  1  0
 24 25  1  0
  6  2  1  0
 24 11  1  0
 25  5  1  0
 21 14  1  0
  1 26  1  0
  1 27  1  0
  1 28  1  0
  7 29  1  0
  7 30  1  0
  9 31  1  0
 10 32  1  0
 12 33  1  0
 12 34  1  0
 13 35  1  0
 15 36  1  0
 16 37  1  0
 18 38  1  0
 18 39  1  0
 19 40  1  0
 20 41  1  0
 21 42  1  0
 22 43  1  0
 22 44  1  0
 23 45  1  0
 23 46  1  0
 24 47  1  0
 25 48  1  0
 25 49  1  0
M  END
>  <Energy>  (392) 
-18.017587156831496

>  <compound_id>  (392) 
4087

>  <target_id>  (392) 
1

>  <reference_id>  (392) 
167

>  <inspiration_ids>  (392) 
[142, 167]

>  <energy_score>  (392) 
-43.69785025096627

>  <distance_score>  (392) 
1.6499880839537973

>  <path>  (392) 
/opt/xchem-fragalysis-2/maxwin/BulkDock/SCRATCH/505735/C4087-P167/C4087-P167.minimised.mol

>  <scratch_subdir>  (392) 
/opt/xchem-fragalysis-2/maxwin/BulkDock/SCRATCH/505735/C4087-P167

>  <fragmenstein_runtime>  (392) 
6.963885545730591

>  <fragmenstein_outcome>  (392) 
too moved

>  <fragmenstein_mode>  (392) 
expansion

>  <fragmenstein_error>  (392) 


$$$$
C4088-P142
     RDKit          3D

 52 55  0  0  0  0  0  0  0  0999 V2000
   -0.4602   -7.9756   30.0695 C   0  0  0  0  0  0  0  0  0  0  0  0
   -0.7994   -7.6629   31.4551 C   0  0  0  0  0  0  0  0  0  0  0  0
   -1.4678   -8.4069   32.2965 N   0  0  0  0  0  0  0  0  0  0  0  0
   -1.4231   -7.7924   33.5283 N   0  0  0  0  0  0  0  0  0  0  0  0
   -0.7382   -6.6821   33.4017 C   0  0  0  0  0  0  0  0  0  0  0  0
   -0.4570   -6.5123   32.0836 N   0  0  0  0  0  0  0  0  0  0  0  0
    0.1083   -5.3284   31.4964 C   0  0  0  0  0  0  0  0  0  0  0  0
   -0.0129   -4.0826   32.4149 C   0  0  0  0  0  0  0  0  0  0  0  0
   -1.4572   -3.7242   32.5383 N   0  0  0  0  0  0  0  0  0  0  0  0
   -1.9762   -2.3287   33.4316 S   0  0  0  0  0  0  0  0  0  0  0  0
   -0.7445   -1.4869   34.1478 O   0  0  0  0  0  0  0  0  0  0  0  0
    0.7264   -2.9490   31.8022 N   0  0  0  0  0  0  0  0  0  0  0  0
    2.1667   -3.1213   31.5991 C   0  0  0  0  0  0  0  0  0  0  0  0
    2.8423   -1.8160   31.1543 C   0  0  0  0  0  0  0  0  0  0  0  0
    2.1468   -1.1620   29.9575 C   0  0  0  0  0  0  0  0  0  0  0  0
    0.6515   -1.0228   30.2579 C   0  0  0  0  0  0  0  0  0  0  0  0
   -0.1012   -0.2181   29.2170 C   0  0  0  0  0  0  0  0  0  0  0  0
    0.0151    1.1806   29.2621 C   0  0  0  0  0  0  0  0  0  0  0  0
   -0.7233    2.0019   28.4069 C   0  0  0  0  0  0  0  0  0  0  0  0
   -1.5910    1.4521   27.4633 C   0  0  0  0  0  0  0  0  0  0  0  0
   -2.4697    2.3167   26.5941 C   0  0  0  0  0  0  0  0  0  0  0  0
   -1.9249    3.6248   26.4541 O   0  0  0  0  0  0  0  0  0  0  0  0
   -1.6833    0.0570   27.3952 C   0  0  0  0  0  0  0  0  0  0  0  0
   -0.9503   -0.7713   28.2566 C   0  0  0  0  0  0  0  0  0  0  0  0
    0.0916   -2.4194   30.5670 C   0  0  0  0  0  0  0  0  0  0  0  0
    0.4993   -4.5452   33.8278 C   0  0  0  0  0  0  0  0  0  0  0  0
   -0.3412   -5.6946   34.4317 C   0  0  0  0  0  0  0  0  0  0  0  0
   -1.1585   -7.4499   29.4202 H   0  0  0  0  0  0  0  0  0  0  0  0
    0.5562   -7.6581   29.8393 H   0  0  0  0  0  0  0  0  0  0  0  0
   -0.5273   -9.0459   29.8659 H   0  0  0  0  0  0  0  0  0  0  0  0
   -0.3987   -5.1672   30.5381 H   0  0  0  0  0  0  0  0  0  0  0  0
    1.1537   -5.5860   31.2926 H   0  0  0  0  0  0  0  0  0  0  0  0
    2.6551   -3.4416   32.5248 H   0  0  0  0  0  0  0  0  0  0  0  0
    2.3716   -3.8843   30.8392 H   0  0  0  0  0  0  0  0  0  0  0  0
    2.8444   -1.1101   31.9952 H   0  0  0  0  0  0  0  0  0  0  0  0
    3.8915   -2.0126   30.9053 H   0  0  0  0  0  0  0  0  0  0  0  0
    2.3011   -1.7679   29.0556 H   0  0  0  0  0  0  0  0  0  0  0  0
    2.6047   -0.1847   29.7647 H   0  0  0  0  0  0  0  0  0  0  0  0
    0.5477   -0.4436   31.1900 H   0  0  0  0  0  0  0  0  0  0  0  0
    0.6669    1.6545   29.9939 H   0  0  0  0  0  0  0  0  0  0  0  0
   -0.6302    3.0832   28.4958 H   0  0  0  0  0  0  0  0  0  0  0  0
   -3.4665    2.3890   27.0379 H   0  0  0  0  0  0  0  0  0  0  0  0
   -2.5566    1.8878   25.5919 H   0  0  0  0  0  0  0  0  0  0  0  0
   -2.6802    4.2349   26.3506 H   0  0  0  0  0  0  0  0  0  0  0  0
   -2.3351   -0.4109   26.6601 H   0  0  0  0  0  0  0  0  0  0  0  0
   -1.0793   -1.8454   28.1517 H   0  0  0  0  0  0  0  0  0  0  0  0
    0.2630   -3.1011   29.7231 H   0  0  0  0  0  0  0  0  0  0  0  0
   -0.9930   -2.3188   30.6647 H   0  0  0  0  0  0  0  0  0  0  0  0
    1.5328   -4.9057   33.7347 H   0  0  0  0  0  0  0  0  0  0  0  0
    0.5366   -3.7153   34.5418 H   0  0  0  0  0  0  0  0  0  0  0  0
    0.2448   -6.1940   35.2120 H   0  0  0  0  0  0  0  0  0  0  0  0
   -1.2291   -5.2924   34.9247 H   0  0  0  0  0  0  0  0  0  0  0  0
  1  2  1  0
  2  3  2  0
  3  4  1  0
  4  5  2  0
  5  6  1  0
  6  7  1  0
  7  8  1  0
  8  9  1  0
  9 10  2  0
 10 11  2  0
  8 12  1  0
 12 13  1  0
 13 14  1  0
 14 15  1  0
 15 16  1  0
 16 17  1  0
 17 18  2  0
 18 19  1  0
 19 20  2  0
 20 21  1  0
 21 22  1  0
 20 23  1  0
 23 24  2  0
 16 25  1  0
  8 26  1  0
 26 27  1  0
  6  2  1  0
 25 12  1  0
 27  5  1  0
 24 17  1  0
  1 28  1  0
  1 29  1  0
  1 30  1  0
  7 31  1  0
  7 32  1  0
 13 33  1  0
 13 34  1  0
 14 35  1  0
 14 36  1  0
 15 37  1  0
 15 38  1  0
 16 39  1  0
 18 40  1  0
 19 41  1  0
 21 42  1  0
 21 43  1  0
 22 44  1  0
 23 45  1  0
 24 46  1  0
 25 47  1  0
 25 48  1  0
 26 49  1  0
 26 50  1  0
 27 51  1  0
 27 52  1  0
M  END
>  <Energy>  (393) 
10.561727663662104

>  <compound_id>  (393) 
4088

>  <target_id>  (393) 
1

>  <reference_id>  (393) 
142

>  <inspiration_ids>  (393) 
[142, 168]

>  <energy_score>  (393) 
-175.46236544900694

>  <distance_score>  (393) 
0.9515621688605005

>  <path>  (393) 
/opt/xchem-fragalysis-2/maxwin/BulkDock/SCRATCH/505735/C4088-P142/C4088-P142.minimised.mol

>  <scratch_subdir>  (393) 
/opt/xchem-fragalysis-2/maxwin/BulkDock/SCRATCH/505735/C4088-P142

>  <fragmenstein_runtime>  (393) 
5.7190260887146

>  <fragmenstein_outcome>  (393) 
acceptable

>  <fragmenstein_mode>  (393) 
expansion

>  <fragmenstein_error>  (393) 


$$$$
C4088-P168
     RDKit          3D

 52 55  0  0  0  0  0  0  0  0999 V2000
   -0.2439   -7.7426   29.3408 C   0  0  0  0  0  0  0  0  0  0  0  0
   -0.6382   -7.6301   30.7629 C   0  0  0  0  0  0  0  0  0  0  0  0
   -1.3288   -8.4932   31.4737 N   0  0  0  0  0  0  0  0  0  0  0  0
   -1.3462   -8.0543   32.7835 N   0  0  0  0  0  0  0  0  0  0  0  0
   -0.6830   -6.9230   32.8394 C   0  0  0  0  0  0  0  0  0  0  0  0
   -0.3445   -6.5755   31.5690 N   0  0  0  0  0  0  0  0  0  0  0  0
    0.2131   -5.3119   31.1772 C   0  0  0  0  0  0  0  0  0  0  0  0
    0.0397   -4.1950   32.2445 C   0  0  0  0  0  0  0  0  0  0  0  0
   -1.4160   -3.8522   32.3629 N   0  0  0  0  0  0  0  0  0  0  0  0
   -1.9260   -2.4793   33.3102 S   0  0  0  0  0  0  0  0  0  0  0  0
   -0.7133   -1.7804   34.1918 O   0  0  0  0  0  0  0  0  0  0  0  0
    0.7905   -2.9941   31.7906 N   0  0  0  0  0  0  0  0  0  0  0  0
    2.2475   -3.1146   31.7022 C   0  0  0  0  0  0  0  0  0  0  0  0
    2.9193   -1.7700   31.3914 C   0  0  0  0  0  0  0  0  0  0  0  0
    2.3120   -1.0657   30.1767 C   0  0  0  0  0  0  0  0  0  0  0  0
    0.7957   -0.9606   30.3604 C   0  0  0  0  0  0  0  0  0  0  0  0
    0.1232   -0.1285   29.2863 C   0  0  0  0  0  0  0  0  0  0  0  0
    0.2487    1.2687   29.3477 C   0  0  0  0  0  0  0  0  0  0  0  0
   -0.4379    2.1088   28.4616 C   0  0  0  0  0  0  0  0  0  0  0  0
   -1.2596    1.5792   27.4707 C   0  0  0  0  0  0  0  0  0  0  0  0
   -2.1188    2.4433   26.5783 C   0  0  0  0  0  0  0  0  0  0  0  0
   -1.6331    3.7773   26.5288 O   0  0  0  0  0  0  0  0  0  0  0  0
   -1.3295    0.1873   27.3754 C   0  0  0  0  0  0  0  0  0  0  0  0
   -0.6607   -0.6604   28.2659 C   0  0  0  0  0  0  0  0  0  0  0  0
    0.2410   -2.3811   30.5533 C   0  0  0  0  0  0  0  0  0  0  0  0
    0.4895   -4.8329   33.6097 C   0  0  0  0  0  0  0  0  0  0  0  0
   -0.3546   -6.0688   34.0098 C   0  0  0  0  0  0  0  0  0  0  0  0
   -0.9551   -7.2140   28.7001 H   0  0  0  0  0  0  0  0  0  0  0  0
    0.7499   -7.3202   29.1662 H   0  0  0  0  0  0  0  0  0  0  0  0
   -0.2100   -8.7923   29.0359 H   0  0  0  0  0  0  0  0  0  0  0  0
   -0.2654   -5.0347   30.2308 H   0  0  0  0  0  0  0  0  0  0  0  0
    1.2694   -5.5226   30.9767 H   0  0  0  0  0  0  0  0  0  0  0  0
    2.6640   -3.4742   32.6485 H   0  0  0  0  0  0  0  0  0  0  0  0
    2.5417   -3.8263   30.9228 H   0  0  0  0  0  0  0  0  0  0  0  0
    2.8290   -1.1139   32.2670 H   0  0  0  0  0  0  0  0  0  0  0  0
    3.9914   -1.9267   31.2249 H   0  0  0  0  0  0  0  0  0  0  0  0
    2.5502   -1.6222   29.2612 H   0  0  0  0  0  0  0  0  0  0  0  0
    2.7680   -0.0742   30.0716 H   0  0  0  0  0  0  0  0  0  0  0  0
    0.6008   -0.4241   31.3028 H   0  0  0  0  0  0  0  0  0  0  0  0
    0.8618    1.7312   30.1196 H   0  0  0  0  0  0  0  0  0  0  0  0
   -0.3453    3.1889   28.5710 H   0  0  0  0  0  0  0  0  0  0  0  0
   -3.1467    2.4523   26.9479 H   0  0  0  0  0  0  0  0  0  0  0  0
   -2.1226    2.0557   25.5558 H   0  0  0  0  0  0  0  0  0  0  0  0
   -2.3960    4.3559   26.3321 H   0  0  0  0  0  0  0  0  0  0  0  0
   -1.9211   -0.2655   26.5885 H   0  0  0  0  0  0  0  0  0  0  0  0
   -0.7898   -1.7300   28.1324 H   0  0  0  0  0  0  0  0  0  0  0  0
    0.4855   -3.0007   29.6803 H   0  0  0  0  0  0  0  0  0  0  0  0
   -0.8502   -2.3060   30.5826 H   0  0  0  0  0  0  0  0  0  0  0  0
    1.5338   -5.1626   33.5240 H   0  0  0  0  0  0  0  0  0  0  0  0
    0.4692   -4.1050   34.4280 H   0  0  0  0  0  0  0  0  0  0  0  0
    0.2028   -6.6585   34.7468 H   0  0  0  0  0  0  0  0  0  0  0  0
   -1.2758   -5.7525   34.5014 H   0  0  0  0  0  0  0  0  0  0  0  0
  1  2  1  0
  2  3  2  0
  3  4  1  0
  4  5  2  0
  5  6  1  0
  6  7  1  0
  7  8  1  0
  8  9  1  0
  9 10  2  0
 10 11  2  0
  8 12  1  0
 12 13  1  0
 13 14  1  0
 14 15  1  0
 15 16  1  0
 16 17  1  0
 17 18  2  0
 18 19  1  0
 19 20  2  0
 20 21  1  0
 21 22  1  0
 20 23  1  0
 23 24  2  0
 16 25  1  0
  8 26  1  0
 26 27  1  0
  6  2  1  0
 25 12  1  0
 27  5  1  0
 24 17  1  0
  1 28  1  0
  1 29  1  0
  1 30  1  0
  7 31  1  0
  7 32  1  0
 13 33  1  0
 13 34  1  0
 14 35  1  0
 14 36  1  0
 15 37  1  0
 15 38  1  0
 16 39  1  0
 18 40  1  0
 19 41  1  0
 21 42  1  0
 21 43  1  0
 22 44  1  0
 23 45  1  0
 24 46  1  0
 25 47  1  0
 25 48  1  0
 26 49  1  0
 26 50  1  0
 27 51  1  0
 27 52  1  0
M  END
>  <Energy>  (394) 
10.514229790003094

>  <compound_id>  (394) 
4088

>  <target_id>  (394) 
1

>  <reference_id>  (394) 
168

>  <inspiration_ids>  (394) 
[142, 168]

>  <energy_score>  (394) 
-175.50986332266396

>  <distance_score>  (394) 
0.9845454834087966

>  <path>  (394) 
/opt/xchem-fragalysis-2/maxwin/BulkDock/SCRATCH/505735/C4088-P168/C4088-P168.minimised.mol

>  <scratch_subdir>  (394) 
/opt/xchem-fragalysis-2/maxwin/BulkDock/SCRATCH/505735/C4088-P168

>  <fragmenstein_runtime>  (394) 
5.5843048095703125

>  <fragmenstein_outcome>  (394) 
acceptable

>  <fragmenstein_mode>  (394) 
expansion

>  <fragmenstein_error>  (394) 


$$$$
C4063-P142
     RDKit          3D

 51 53  0  0  0  0  0  0  0  0999 V2000
   -0.7586   -6.6661   34.4132 C   0  0  0  0  0  0  0  0  0  0  0  0
    0.7196   -6.6140   34.4146 C   0  0  0  0  0  0  0  0  0  0  0  0
    1.5101   -7.6453   34.6386 N   0  0  0  0  0  0  0  0  0  0  0  0
    2.8073   -7.2324   34.5599 N   0  0  0  0  0  0  0  0  0  0  0  0
    2.7916   -5.9477   34.3038 C   0  0  0  0  0  0  0  0  0  0  0  0
    1.5041   -5.5095   34.1845 N   0  0  0  0  0  0  0  0  0  0  0  0
    1.1555   -4.1431   33.8143 C   0  0  0  0  0  0  0  0  0  0  0  0
   -0.0112   -3.5568   34.5924 C   0  0  0  0  0  0  0  0  0  0  0  0
    0.9096   -4.0001   32.2930 C   0  0  0  0  0  0  0  0  0  0  0  0
    0.5048   -5.0506   31.7155 N   0  0  0  0  0  0  0  0  0  0  0  0
    0.3008   -5.2007   30.0529 S   0  0  0  0  0  4  0  0  0  0  0  0
    1.6918   -5.3298   29.4759 O   0  0  0  0  0  0  0  0  0  0  0  0
    1.0929   -2.6583   31.7925 N   0  0  0  0  0  0  0  0  0  0  0  0
    2.5818   -2.4698   31.2364 C   0  0  0  0  0  0  0  0  0  0  0  0
    3.0727   -1.0290   31.3505 C   0  0  0  0  0  0  0  0  0  0  0  0
    2.3513   -0.1539   30.3454 C   0  0  0  0  0  0  0  0  0  0  0  0
    0.8603   -0.4853   30.4077 C   0  0  0  0  0  0  0  0  0  0  0  0
    0.0744    0.2568   29.3354 C   0  0  0  0  0  0  0  0  0  0  0  0
    0.0872    1.6619   29.3456 C   0  0  0  0  0  0  0  0  0  0  0  0
   -0.6734    2.4070   28.4384 C   0  0  0  0  0  0  0  0  0  0  0  0
   -1.4779    1.7745   27.4889 C   0  0  0  0  0  0  0  0  0  0  0  0
   -2.3844    2.5581   26.5726 C   0  0  0  0  0  0  0  0  0  0  0  0
   -1.8680    3.8646   26.3404 O   0  0  0  0  0  0  0  0  0  0  0  0
   -1.4869    0.3758   27.4658 C   0  0  0  0  0  0  0  0  0  0  0  0
   -0.7158   -0.3738   28.3663 C   0  0  0  0  0  0  0  0  0  0  0  0
    0.7483   -2.0279   30.4132 C   0  0  0  0  0  0  0  0  0  0  0  0
   -1.1782   -6.2187   33.5091 H   0  0  0  0  0  0  0  0  0  0  0  0
   -1.1023   -7.7042   34.4524 H   0  0  0  0  0  0  0  0  0  0  0  0
   -1.1630   -6.1531   35.2905 H   0  0  0  0  0  0  0  0  0  0  0  0
    3.6594   -5.3148   34.1847 H   0  0  0  0  0  0  0  0  0  0  0  0
    2.0389   -3.5371   34.0584 H   0  0  0  0  0  0  0  0  0  0  0  0
    0.0681   -3.7739   35.6627 H   0  0  0  0  0  0  0  0  0  0  0  0
   -0.0404   -2.4676   34.4737 H   0  0  0  0  0  0  0  0  0  0  0  0
   -0.9724   -3.9309   34.2311 H   0  0  0  0  0  0  0  0  0  0  0  0
   -0.3257   -6.3800   29.8274 H   0  0  0  0  0  0  0  0  0  0  0  0
    3.2031   -3.0319   31.9500 H   0  0  0  0  0  0  0  0  0  0  0  0
    2.8113   -2.9646   30.2803 H   0  0  0  0  0  0  0  0  0  0  0  0
    4.1533   -0.9820   31.1764 H   0  0  0  0  0  0  0  0  0  0  0  0
    2.8897   -0.6566   32.3660 H   0  0  0  0  0  0  0  0  0  0  0  0
    2.5510    0.9012   30.5619 H   0  0  0  0  0  0  0  0  0  0  0  0
    2.7415   -0.3521   29.3383 H   0  0  0  0  0  0  0  0  0  0  0  0
    0.4637   -0.1318   31.3714 H   0  0  0  0  0  0  0  0  0  0  0  0
    0.6713    2.2071   30.0841 H   0  0  0  0  0  0  0  0  0  0  0  0
   -0.6560    3.4947   28.4972 H   0  0  0  0  0  0  0  0  0  0  0  0
   -2.4729    2.0619   25.6015 H   0  0  0  0  0  0  0  0  0  0  0  0
   -3.3784    2.6367   27.0220 H   0  0  0  0  0  0  0  0  0  0  0  0
   -2.6389    4.4619   26.2691 H   0  0  0  0  0  0  0  0  0  0  0  0
   -2.1030   -0.1565   26.7411 H   0  0  0  0  0  0  0  0  0  0  0  0
   -0.7753   -1.4558   28.2764 H   0  0  0  0  0  0  0  0  0  0  0  0
   -0.3289   -2.2412   30.3479 H   0  0  0  0  0  0  0  0  0  0  0  0
    1.1449   -2.5039   29.5026 H   0  0  0  0  0  0  0  0  0  0  0  0
  1  2  1  0
  2  3  2  0
  3  4  1  0
  4  5  2  0
  5  6  1  0
  6  7  1  0
  7  8  1  0
  7  9  1  0
  9 10  2  3
 10 11  1  0
 11 12  2  0
  9 13  1  0
 13 14  1  0
 14 15  1  0
 15 16  1  0
 16 17  1  0
 17 18  1  0
 18 19  2  0
 19 20  1  0
 20 21  2  0
 21 22  1  0
 22 23  1  0
 21 24  1  0
 24 25  2  0
 17 26  1  0
  6  2  1  0
 26 13  1  0
 25 18  1  0
  1 27  1  0
  1 28  1  0
  1 29  1  0
  5 30  1  0
  7 31  1  0
  8 32  1  0
  8 33  1  0
  8 34  1  0
 11 35  1  0
 14 36  1  0
 14 37  1  0
 15 38  1  0
 15 39  1  0
 16 40  1  0
 16 41  1  0
 17 42  1  0
 19 43  1  0
 20 44  1  0
 22 45  1  0
 22 46  1  0
 23 47  1  0
 24 48  1  0
 25 49  1  0
 26 50  1  0
 26 51  1  0
M  END
>  <Energy>  (395) 
99.569903531065336

>  <compound_id>  (395) 
4063

>  <target_id>  (395) 
1

>  <reference_id>  (395) 
142

>  <inspiration_ids>  (395) 
[142, 180]

>  <energy_score>  (395) 
19.501153975562886

>  <distance_score>  (395) 
2.3259029396601805

>  <path>  (395) 
/opt/xchem-fragalysis-2/maxwin/BulkDock/SCRATCH/505735/C4063-P142/C4063-P142.minimised.mol

>  <scratch_subdir>  (395) 
/opt/xchem-fragalysis-2/maxwin/BulkDock/SCRATCH/505735/C4063-P142

>  <fragmenstein_runtime>  (395) 
10.07407546043396

>  <fragmenstein_outcome>  (395) 
too moved

>  <fragmenstein_mode>  (395) 
expansion

>  <fragmenstein_error>  (395) 


$$$$
C4063-P180
     RDKit          3D

 51 53  0  0  0  0  0  0  0  0999 V2000
   -0.9293   -6.9853   34.2714 C   0  0  0  0  0  0  0  0  0  0  0  0
   -0.6984   -7.1390   32.8173 C   0  0  0  0  0  0  0  0  0  0  0  0
   -1.2604   -8.0614   32.0573 N   0  0  0  0  0  0  0  0  0  0  0  0
   -0.7831   -7.9314   30.7815 N   0  0  0  0  0  0  0  0  0  0  0  0
    0.0681   -6.9376   30.7884 C   0  0  0  0  0  0  0  0  0  0  0  0
    0.1366   -6.3788   32.0355 N   0  0  0  0  0  0  0  0  0  0  0  0
    0.9569   -5.2120   32.3456 C   0  0  0  0  0  0  0  0  0  0  0  0
    1.7501   -5.3009   33.6432 C   0  0  0  0  0  0  0  0  0  0  0  0
    0.1347   -3.8987   32.2605 C   0  0  0  0  0  0  0  0  0  0  0  0
   -0.8587   -3.8219   33.0414 N   0  0  0  0  0  0  0  0  0  0  0  0
   -1.9485   -2.5269   33.1430 S   0  0  0  0  0  4  0  0  0  0  0  0
   -2.8312   -2.6504   31.9232 O   0  0  0  0  0  0  0  0  0  0  0  0
    0.6377   -2.9698   31.2797 N   0  0  0  0  0  0  0  0  0  0  0  0
   -0.0138   -3.2495   29.8696 C   0  0  0  0  0  0  0  0  0  0  0  0
    1.0736   -3.0890   28.8130 C   0  0  0  0  0  0  0  0  0  0  0  0
    1.8531   -1.8002   29.0084 C   0  0  0  0  0  0  0  0  0  0  0  0
    1.0740   -0.7976   29.8636 C   0  0  0  0  0  0  0  0  0  0  0  0
    0.2393    0.1807   29.0456 C   0  0  0  0  0  0  0  0  0  0  0  0
    0.2744    1.5523   29.3396 C   0  0  0  0  0  0  0  0  0  0  0  0
   -0.4819    2.4724   28.5977 C   0  0  0  0  0  0  0  0  0  0  0  0
   -1.2833    2.0508   27.5329 C   0  0  0  0  0  0  0  0  0  0  0  0
   -2.1413    2.9937   26.7258 C   0  0  0  0  0  0  0  0  0  0  0  0
   -1.6793    4.3359   26.8089 O   0  0  0  0  0  0  0  0  0  0  0  0
   -1.3329    0.6831   27.2571 C   0  0  0  0  0  0  0  0  0  0  0  0
   -0.5938   -0.2377   28.0029 C   0  0  0  0  0  0  0  0  0  0  0  0
    0.2001   -1.5148   30.9280 C   0  0  0  0  0  0  0  0  0  0  0  0
   -1.1815   -5.9580   34.5402 H   0  0  0  0  0  0  0  0  0  0  0  0
   -1.7617   -7.6203   34.5921 H   0  0  0  0  0  0  0  0  0  0  0  0
   -0.0452   -7.2967   34.8354 H   0  0  0  0  0  0  0  0  0  0  0  0
    0.6368   -6.5814   29.9435 H   0  0  0  0  0  0  0  0  0  0  0  0
    1.7076   -5.1745   31.5428 H   0  0  0  0  0  0  0  0  0  0  0  0
    1.1172   -5.1783   34.5270 H   0  0  0  0  0  0  0  0  0  0  0  0
    2.2736   -6.2593   33.7246 H   0  0  0  0  0  0  0  0  0  0  0  0
    2.4980   -4.5009   33.6835 H   0  0  0  0  0  0  0  0  0  0  0  0
   -2.7516   -2.8026   34.2031 H   0  0  0  0  0  0  0  0  0  0  0  0
   -0.2727   -4.3154   29.8564 H   0  0  0  0  0  0  0  0  0  0  0  0
   -0.9832   -2.7907   29.6191 H   0  0  0  0  0  0  0  0  0  0  0  0
    0.6066   -3.1179   27.8318 H   0  0  0  0  0  0  0  0  0  0  0  0
    1.7678   -3.9378   28.8478 H   0  0  0  0  0  0  0  0  0  0  0  0
    2.7780   -2.0530   29.5454 H   0  0  0  0  0  0  0  0  0  0  0  0
    2.1724   -1.3803   28.0476 H   0  0  0  0  0  0  0  0  0  0  0  0
    1.8330   -0.2044   30.3939 H   0  0  0  0  0  0  0  0  0  0  0  0
    0.8958    1.9311   30.1480 H   0  0  0  0  0  0  0  0  0  0  0  0
   -0.4421    3.5305   28.8544 H   0  0  0  0  0  0  0  0  0  0  0  0
   -2.1196    2.7074   25.6687 H   0  0  0  0  0  0  0  0  0  0  0  0
   -3.1748    2.9462   27.0772 H   0  0  0  0  0  0  0  0  0  0  0  0
   -2.4399    4.9003   26.5671 H   0  0  0  0  0  0  0  0  0  0  0  0
   -1.9553    0.3094   26.4472 H   0  0  0  0  0  0  0  0  0  0  0  0
   -0.6951   -1.2819   27.7257 H   0  0  0  0  0  0  0  0  0  0  0  0
    0.3983   -0.9679   31.8630 H   0  0  0  0  0  0  0  0  0  0  0  0
   -0.8802   -1.3475   30.8027 H   0  0  0  0  0  0  0  0  0  0  0  0
  1  2  1  0
  2  3  2  0
  3  4  1  0
  4  5  2  0
  5  6  1  0
  6  7  1  0
  7  8  1  0
  7  9  1  0
  9 10  2  3
 10 11  1  0
 11 12  2  0
  9 13  1  0
 13 14  1  0
 14 15  1  0
 15 16  1  0
 16 17  1  0
 17 18  1  0
 18 19  2  0
 19 20  1  0
 20 21  2  0
 21 22  1  0
 22 23  1  0
 21 24  1  0
 24 25  2  0
 17 26  1  0
  6  2  1  0
 26 13  1  0
 25 18  1  0
  1 27  1  0
  1 28  1  0
  1 29  1  0
  5 30  1  0
  7 31  1  0
  8 32  1  0
  8 33  1  0
  8 34  1  0
 11 35  1  0
 14 36  1  0
 14 37  1  0
 15 38  1  0
 15 39  1  0
 16 40  1  0
 16 41  1  0
 17 42  1  0
 19 43  1  0
 20 44  1  0
 22 45  1  0
 22 46  1  0
 23 47  1  0
 24 48  1  0
 25 49  1  0
 26 50  1  0
 26 51  1  0
M  END
>  <Energy>  (396) 
102.70183168574434

>  <compound_id>  (396) 
4063

>  <target_id>  (396) 
1

>  <reference_id>  (396) 
180

>  <inspiration_ids>  (396) 
[142, 180]

>  <energy_score>  (396) 
22.633082130243565

>  <distance_score>  (396) 
1.4272388396069837

>  <path>  (396) 
/opt/xchem-fragalysis-2/maxwin/BulkDock/SCRATCH/505735/C4063-P180/C4063-P180.minimised.mol

>  <scratch_subdir>  (396) 
/opt/xchem-fragalysis-2/maxwin/BulkDock/SCRATCH/505735/C4063-P180

>  <fragmenstein_runtime>  (396) 
9.883033037185669

>  <fragmenstein_outcome>  (396) 
too moved

>  <fragmenstein_mode>  (396) 
expansion

>  <fragmenstein_error>  (396) 


$$$$
C4089-P142
     RDKit          3D

 49 52  0  0  0  0  0  0  0  0999 V2000
   -1.8622    3.7022   26.7039 O   0  0  0  0  0  0  0  0  0  0  0  0
   -2.4485    2.4059   26.7016 C   0  0  0  0  0  0  0  0  0  0  0  0
   -1.6451    1.4329   27.5286 C   0  0  0  0  0  0  0  0  0  0  0  0
   -0.7999    1.8410   28.5621 C   0  0  0  0  0  0  0  0  0  0  0  0
   -0.1081    0.9037   29.3422 C   0  0  0  0  0  0  0  0  0  0  0  0
   -0.2302   -0.4710   29.1017 C   0  0  0  0  0  0  0  0  0  0  0  0
    0.5786   -1.5081   29.8644 C   0  0  0  0  0  0  0  0  0  0  0  0
    2.0907   -1.1927   29.8683 C   0  0  0  0  0  0  0  0  0  0  0  0
    2.7989   -1.7566   31.0999 C   0  0  0  0  0  0  0  0  0  0  0  0
    2.1498   -3.0589   31.5580 C   0  0  0  0  0  0  0  0  0  0  0  0
    0.7318   -2.9293   31.9194 N   0  0  0  0  0  0  0  0  0  0  0  0
    0.0073   -4.1852   32.1742 C   0  0  0  0  0  0  0  0  0  0  0  0
   -1.4008   -4.0045   32.0048 O   0  0  0  0  0  0  0  0  0  0  0  0
    0.2627   -4.6156   33.6516 C   0  0  0  0  0  0  0  0  0  0  0  0
   -0.4332   -5.9280   34.0661 C   0  0  0  0  0  0  0  0  0  0  0  0
   -0.6619   -6.8530   32.9278 C   0  0  0  0  0  0  0  0  0  0  0  0
   -1.3457   -7.9747   32.8874 N   0  0  0  0  0  0  0  0  0  0  0  0
   -1.3343   -8.4421   31.5887 N   0  0  0  0  0  0  0  0  0  0  0  0
   -0.6396   -7.5960   30.8730 C   0  0  0  0  0  0  0  0  0  0  0  0
   -0.2381   -6.5795   31.6633 N   0  0  0  0  0  0  0  0  0  0  0  0
    0.4354   -5.3695   31.2686 C   0  0  0  0  0  0  0  0  0  0  0  0
    0.0481   -1.7974   31.2925 C   0  0  0  0  0  0  0  0  0  0  0  0
    0.2631   -0.6794   32.1439 O   0  0  0  0  0  0  0  0  0  0  0  0
   -1.1119   -0.8786   28.0982 C   0  0  0  0  0  0  0  0  0  0  0  0
   -1.7930    0.0602   27.3168 C   0  0  0  0  0  0  0  0  0  0  0  0
   -2.5859    4.3332   26.5217 H   0  0  0  0  0  0  0  0  0  0  0  0
   -3.4654    2.4709   27.0971 H   0  0  0  0  0  0  0  0  0  0  0  0
   -2.4961    2.0706   25.6608 H   0  0  0  0  0  0  0  0  0  0  0  0
   -0.6743    2.9030   28.7687 H   0  0  0  0  0  0  0  0  0  0  0  0
    0.5366    1.2707   30.1382 H   0  0  0  0  0  0  0  0  0  0  0  0
    0.4706   -2.4520   29.3067 H   0  0  0  0  0  0  0  0  0  0  0  0
    2.5349   -1.6249   28.9616 H   0  0  0  0  0  0  0  0  0  0  0  0
    2.3084   -0.1208   29.8146 H   0  0  0  0  0  0  0  0  0  0  0  0
    3.8564   -1.9265   30.8654 H   0  0  0  0  0  0  0  0  0  0  0  0
    2.7827   -1.0229   31.9150 H   0  0  0  0  0  0  0  0  0  0  0  0
    2.2810   -3.7588   30.7254 H   0  0  0  0  0  0  0  0  0  0  0  0
    2.7130   -3.4520   32.4113 H   0  0  0  0  0  0  0  0  0  0  0  0
   -1.5557   -3.8326   31.0613 H   0  0  0  0  0  0  0  0  0  0  0  0
    1.3415   -4.7427   33.8139 H   0  0  0  0  0  0  0  0  0  0  0  0
   -0.0666   -3.8255   34.3394 H   0  0  0  0  0  0  0  0  0  0  0  0
    0.1671   -6.4305   34.8334 H   0  0  0  0  0  0  0  0  0  0  0  0
   -1.3929   -5.7001   34.5328 H   0  0  0  0  0  0  0  0  0  0  0  0
   -0.4302   -7.6859   29.8216 H   0  0  0  0  0  0  0  0  0  0  0  0
    0.1788   -5.1718   30.2214 H   0  0  0  0  0  0  0  0  0  0  0  0
    1.5026   -5.6017   31.3461 H   0  0  0  0  0  0  0  0  0  0  0  0
   -1.0381   -1.9057   31.2505 H   0  0  0  0  0  0  0  0  0  0  0  0
    0.2070   -1.0639   33.0347 H   0  0  0  0  0  0  0  0  0  0  0  0
   -1.2648   -1.9319   27.8758 H   0  0  0  0  0  0  0  0  0  0  0  0
   -2.4333   -0.3026   26.5164 H   0  0  0  0  0  0  0  0  0  0  0  0
  1  2  1  0
  2  3  1  0
  3  4  2  0
  4  5  1  0
  5  6  2  0
  6  7  1  0
  7  8  1  0
  8  9  1  0
  9 10  1  0
 10 11  1  0
 11 12  1  0
 12 13  1  0
 12 14  1  0
 14 15  1  0
 15 16  1  0
 16 17  2  0
 17 18  1  0
 18 19  2  0
 19 20  1  0
 20 21  1  0
 11 22  1  0
 22 23  1  0
  6 24  1  0
 24 25  2  0
 25  3  1  0
 22  7  1  0
 21 12  1  0
 20 16  1  0
  1 26  1  0
  2 27  1  0
  2 28  1  0
  4 29  1  0
  5 30  1  0
  7 31  1  0
  8 32  1  0
  8 33  1  0
  9 34  1  0
  9 35  1  0
 10 36  1  0
 10 37  1  0
 13 38  1  0
 14 39  1  0
 14 40  1  0
 15 41  1  0
 15 42  1  0
 19 43  1  0
 21 44  1  0
 21 45  1  0
 22 46  1  0
 23 47  1  0
 24 48  1  0
 25 49  1  0
M  END
>  <Energy>  (397) 
13.135619272559254

>  <compound_id>  (397) 
4089

>  <target_id>  (397) 
1

>  <reference_id>  (397) 
142

>  <inspiration_ids>  (397) 
[142, 183]

>  <energy_score>  (397) 
-38.476500950723675

>  <distance_score>  (397) 
1.0118492277168905

>  <path>  (397) 
/opt/xchem-fragalysis-2/maxwin/BulkDock/SCRATCH/505735/C4089-P142/C4089-P142.minimised.mol

>  <scratch_subdir>  (397) 
/opt/xchem-fragalysis-2/maxwin/BulkDock/SCRATCH/505735/C4089-P142

>  <fragmenstein_runtime>  (397) 
5.319838762283325

>  <fragmenstein_outcome>  (397) 
too moved

>  <fragmenstein_mode>  (397) 
expansion

>  <fragmenstein_error>  (397) 


$$$$
C4089-P183
     RDKit          3D

 49 52  0  0  0  0  0  0  0  0999 V2000
   -1.7553    3.6434   26.6881 O   0  0  0  0  0  0  0  0  0  0  0  0
   -2.4172    2.3911   26.8128 C   0  0  0  0  0  0  0  0  0  0  0  0
   -1.6057    1.4167   27.6292 C   0  0  0  0  0  0  0  0  0  0  0  0
   -0.7103    1.8351   28.6160 C   0  0  0  0  0  0  0  0  0  0  0  0
    0.0100    0.9053   29.3783 C   0  0  0  0  0  0  0  0  0  0  0  0
   -0.1545   -0.4720   29.1811 C   0  0  0  0  0  0  0  0  0  0  0  0
    0.6597   -1.5217   29.9178 C   0  0  0  0  0  0  0  0  0  0  0  0
    2.1738   -1.2222   29.9275 C   0  0  0  0  0  0  0  0  0  0  0  0
    2.8778   -1.8403   31.1353 C   0  0  0  0  0  0  0  0  0  0  0  0
    2.2156   -3.1492   31.5566 C   0  0  0  0  0  0  0  0  0  0  0  0
    0.7941   -3.0240   31.8785 N   0  0  0  0  0  0  0  0  0  0  0  0
    0.0517   -4.2520   32.1742 C   0  0  0  0  0  0  0  0  0  0  0  0
   -1.3495   -4.0744   31.9392 O   0  0  0  0  0  0  0  0  0  0  0  0
    0.2583   -4.6382   33.6682 C   0  0  0  0  0  0  0  0  0  0  0  0
   -0.4391   -5.9464   34.0959 C   0  0  0  0  0  0  0  0  0  0  0  0
   -0.6468   -6.8991   32.9749 C   0  0  0  0  0  0  0  0  0  0  0  0
   -1.3395   -8.0162   32.9447 N   0  0  0  0  0  0  0  0  0  0  0  0
   -1.3333   -8.4955   31.6497 N   0  0  0  0  0  0  0  0  0  0  0  0
   -0.6263   -7.6648   30.9273 C   0  0  0  0  0  0  0  0  0  0  0  0
   -0.1985   -6.6547   31.7130 N   0  0  0  0  0  0  0  0  0  0  0  0
    0.5036   -5.4626   31.3153 C   0  0  0  0  0  0  0  0  0  0  0  0
    0.1250   -1.8443   31.3392 C   0  0  0  0  0  0  0  0  0  0  0  0
    0.3627   -0.7550   32.2257 O   0  0  0  0  0  0  0  0  0  0  0  0
   -1.0915   -0.8869   28.2328 C   0  0  0  0  0  0  0  0  0  0  0  0
   -1.7820    0.0422   27.4534 C   0  0  0  0  0  0  0  0  0  0  0  0
   -2.4332    4.2811   26.3972 H   0  0  0  0  0  0  0  0  0  0  0  0
   -3.3876    2.5486   27.2904 H   0  0  0  0  0  0  0  0  0  0  0  0
   -2.5741    2.0036   25.8025 H   0  0  0  0  0  0  0  0  0  0  0  0
   -0.5547    2.9003   28.7852 H   0  0  0  0  0  0  0  0  0  0  0  0
    0.7175    1.2872   30.1108 H   0  0  0  0  0  0  0  0  0  0  0  0
    0.5489   -2.4513   29.3362 H   0  0  0  0  0  0  0  0  0  0  0  0
    2.6114   -1.6236   29.0036 H   0  0  0  0  0  0  0  0  0  0  0  0
    2.4031   -0.1519   29.9159 H   0  0  0  0  0  0  0  0  0  0  0  0
    3.9327   -2.0147   30.8924 H   0  0  0  0  0  0  0  0  0  0  0  0
    2.8730   -1.1341   31.9745 H   0  0  0  0  0  0  0  0  0  0  0  0
    2.3616   -3.8401   30.7183 H   0  0  0  0  0  0  0  0  0  0  0  0
    2.7586   -3.5558   32.4168 H   0  0  0  0  0  0  0  0  0  0  0  0
   -1.4417   -3.8668   30.9952 H   0  0  0  0  0  0  0  0  0  0  0  0
   -0.1005   -3.8319   34.3213 H   0  0  0  0  0  0  0  0  0  0  0  0
    1.3318   -4.7504   33.8710 H   0  0  0  0  0  0  0  0  0  0  0  0
    0.1474   -6.4299   34.8857 H   0  0  0  0  0  0  0  0  0  0  0  0
   -1.4091   -5.7119   34.5378 H   0  0  0  0  0  0  0  0  0  0  0  0
   -0.4247   -7.7599   29.8746 H   0  0  0  0  0  0  0  0  0  0  0  0
    0.2886   -5.2889   30.2544 H   0  0  0  0  0  0  0  0  0  0  0  0
    1.5660   -5.6998   31.4374 H   0  0  0  0  0  0  0  0  0  0  0  0
   -0.9625   -1.9445   31.2994 H   0  0  0  0  0  0  0  0  0  0  0  0
   -0.2184   -0.0353   31.9293 H   0  0  0  0  0  0  0  0  0  0  0  0
   -1.2687   -1.9424   28.0396 H   0  0  0  0  0  0  0  0  0  0  0  0
   -2.4348   -0.3420   26.6738 H   0  0  0  0  0  0  0  0  0  0  0  0
  1  2  1  0
  2  3  1  0
  3  4  2  0
  4  5  1  0
  5  6  2  0
  6  7  1  0
  7  8  1  0
  8  9  1  0
  9 10  1  0
 10 11  1  0
 11 12  1  0
 12 13  1  0
 12 14  1  0
 14 15  1  0
 15 16  1  0
 16 17  2  0
 17 18  1  0
 18 19  2  0
 19 20  1  0
 20 21  1  0
 11 22  1  0
 22 23  1  0
  6 24  1  0
 24 25  2  0
 25  3  1  0
 22  7  1  0
 21 12  1  0
 20 16  1  0
  1 26  1  0
  2 27  1  0
  2 28  1  0
  4 29  1  0
  5 30  1  0
  7 31  1  0
  8 32  1  0
  8 33  1  0
  9 34  1  0
  9 35  1  0
 10 36  1  0
 10 37  1  0
 13 38  1  0
 14 39  1  0
 14 40  1  0
 15 41  1  0
 15 42  1  0
 19 43  1  0
 21 44  1  0
 21 45  1  0
 22 46  1  0
 23 47  1  0
 24 48  1  0
 25 49  1  0
M  END
>  <Energy>  (398) 
16.427525287219421

>  <compound_id>  (398) 
4089

>  <target_id>  (398) 
1

>  <reference_id>  (398) 
183

>  <inspiration_ids>  (398) 
[142, 183]

>  <energy_score>  (398) 
-35.18459493606463

>  <distance_score>  (398) 
0.9543607736251446

>  <path>  (398) 
/opt/xchem-fragalysis-2/maxwin/BulkDock/SCRATCH/505735/C4089-P183/C4089-P183.minimised.mol

>  <scratch_subdir>  (398) 
/opt/xchem-fragalysis-2/maxwin/BulkDock/SCRATCH/505735/C4089-P183

>  <fragmenstein_runtime>  (398) 
3.8231773376464844

>  <fragmenstein_outcome>  (398) 
acceptable

>  <fragmenstein_mode>  (398) 
expansion

>  <fragmenstein_error>  (398) 


$$$$
C4089-P142
     RDKit          3D

 49 52  0  0  0  0  0  0  0  0999 V2000
   -1.8471    3.7511   26.6898 O   0  0  0  0  0  0  0  0  0  0  0  0
   -2.4218    2.4498   26.6833 C   0  0  0  0  0  0  0  0  0  0  0  0
   -1.6213    1.4851   27.5225 C   0  0  0  0  0  0  0  0  0  0  0  0
   -0.7788    1.9028   28.5566 C   0  0  0  0  0  0  0  0  0  0  0  0
   -0.1114    0.9742   29.3689 C   0  0  0  0  0  0  0  0  0  0  0  0
   -0.2629   -0.4005   29.1617 C   0  0  0  0  0  0  0  0  0  0  0  0
    0.4538   -1.4467   29.9971 C   0  0  0  0  0  0  0  0  0  0  0  0
    1.9190   -1.1241   30.3624 C   0  0  0  0  0  0  0  0  0  0  0  0
    2.1335   -1.0194   31.8678 C   0  0  0  0  0  0  0  0  0  0  0  0
    1.5831   -2.2278   32.6451 C   0  0  0  0  0  0  0  0  0  0  0  0
    0.3594   -2.8160   32.0849 N   0  0  0  0  0  0  0  0  0  0  0  0
    0.3812   -4.2449   31.7934 C   0  0  0  0  0  0  0  0  0  0  0  0
    1.6994   -4.6525   31.4888 O   0  0  0  0  0  0  0  0  0  0  0  0
   -0.4261   -4.6888   30.5678 C   0  0  0  0  0  0  0  0  0  0  0  0
   -0.2598   -6.1884   30.3338 C   0  0  0  0  0  0  0  0  0  0  0  0
   -0.6589   -6.9177   31.5326 C   0  0  0  0  0  0  0  0  0  0  0  0
   -1.2764   -8.0683   31.6023 N   0  0  0  0  0  0  0  0  0  0  0  0
   -1.5533   -8.2800   32.9241 N   0  0  0  0  0  0  0  0  0  0  0  0
   -1.0767   -7.2761   33.6249 C   0  0  0  0  0  0  0  0  0  0  0  0
   -0.5238   -6.3803   32.7764 N   0  0  0  0  0  0  0  0  0  0  0  0
   -0.0747   -5.0324   33.0624 C   0  0  0  0  0  0  0  0  0  0  0  0
   -0.3813   -1.9092   31.2263 C   0  0  0  0  0  0  0  0  0  0  0  0
   -0.7988   -0.8389   32.0612 O   0  0  0  0  0  0  0  0  0  0  0  0
   -1.1229   -0.8175   28.1387 C   0  0  0  0  0  0  0  0  0  0  0  0
   -1.7775    0.1116   27.3262 C   0  0  0  0  0  0  0  0  0  0  0  0
   -2.5765    4.3757   26.5078 H   0  0  0  0  0  0  0  0  0  0  0  0
   -3.4435    2.5076   27.0684 H   0  0  0  0  0  0  0  0  0  0  0  0
   -2.4552    2.1115   25.6429 H   0  0  0  0  0  0  0  0  0  0  0  0
   -0.6478    2.9672   28.7471 H   0  0  0  0  0  0  0  0  0  0  0  0
    0.5182    1.3486   30.1719 H   0  0  0  0  0  0  0  0  0  0  0  0
    0.5552   -2.3059   29.3225 H   0  0  0  0  0  0  0  0  0  0  0  0
    2.5566   -1.9383   29.9913 H   0  0  0  0  0  0  0  0  0  0  0  0
    2.2884   -0.2204   29.8656 H   0  0  0  0  0  0  0  0  0  0  0  0
    3.2034   -0.9087   32.0808 H   0  0  0  0  0  0  0  0  0  0  0  0
    1.6562   -0.1011   32.2321 H   0  0  0  0  0  0  0  0  0  0  0  0
    2.3937   -2.9524   32.7781 H   0  0  0  0  0  0  0  0  0  0  0  0
    1.3556   -1.8939   33.6658 H   0  0  0  0  0  0  0  0  0  0  0  0
    2.0085   -4.0615   30.7814 H   0  0  0  0  0  0  0  0  0  0  0  0
   -0.0981   -4.1995   29.6484 H   0  0  0  0  0  0  0  0  0  0  0  0
   -1.4685   -4.4236   30.7456 H   0  0  0  0  0  0  0  0  0  0  0  0
   -0.9027   -6.5181   29.5229 H   0  0  0  0  0  0  0  0  0  0  0  0
    0.7680   -6.4402   30.0569 H   0  0  0  0  0  0  0  0  0  0  0  0
   -1.1406   -7.1631   34.6982 H   0  0  0  0  0  0  0  0  0  0  0  0
   -0.9283   -4.5321   33.5352 H   0  0  0  0  0  0  0  0  0  0  0  0
    0.7406   -5.1172   33.7903 H   0  0  0  0  0  0  0  0  0  0  0  0
   -1.3223   -2.3439   30.8774 H   0  0  0  0  0  0  0  0  0  0  0  0
   -1.0324   -1.2724   32.8982 H   0  0  0  0  0  0  0  0  0  0  0  0
   -1.2886   -1.8743   27.9381 H   0  0  0  0  0  0  0  0  0  0  0  0
   -2.4126   -0.2590   26.5250 H   0  0  0  0  0  0  0  0  0  0  0  0
  1  2  1  0
  2  3  1  0
  3  4  2  0
  4  5  1  0
  5  6  2  0
  6  7  1  0
  7  8  1  0
  8  9  1  0
  9 10  1  0
 10 11  1  0
 11 12  1  0
 12 13  1  0
 12 14  1  0
 14 15  1  0
 15 16  1  0
 16 17  2  0
 17 18  1  0
 18 19  2  0
 19 20  1  0
 20 21  1  0
 11 22  1  0
 22 23  1  0
  6 24  1  0
 24 25  2  0
 25  3  1  0
 22  7  1  0
 21 12  1  0
 20 16  1  0
  1 26  1  0
  2 27  1  0
  2 28  1  0
  4 29  1  0
  5 30  1  0
  7 31  1  0
  8 32  1  0
  8 33  1  0
  9 34  1  0
  9 35  1  0
 10 36  1  0
 10 37  1  0
 13 38  1  0
 14 39  1  0
 14 40  1  0
 15 41  1  0
 15 42  1  0
 19 43  1  0
 21 44  1  0
 21 45  1  0
 22 46  1  0
 23 47  1  0
 24 48  1  0
 25 49  1  0
M  END
>  <Energy>  (399) 
13.657325053323618

>  <compound_id>  (399) 
4089

>  <target_id>  (399) 
1

>  <reference_id>  (399) 
142

>  <inspiration_ids>  (399) 
[142, 186]

>  <energy_score>  (399) 
-37.95479516995999

>  <distance_score>  (399) 
1.3460399447566054

>  <path>  (399) 
/opt/xchem-fragalysis-2/maxwin/BulkDock/SCRATCH/505735/C4089-P142/C4089-P142.minimised.mol

>  <scratch_subdir>  (399) 
/opt/xchem-fragalysis-2/maxwin/BulkDock/SCRATCH/505735/C4089-P142

>  <fragmenstein_runtime>  (399) 
3.5440542697906494

>  <fragmenstein_outcome>  (399) 
too moved

>  <fragmenstein_mode>  (399) 
expansion

>  <fragmenstein_error>  (399) 


$$$$
C4089-P186
     RDKit          3D

 49 52  0  0  0  0  0  0  0  0999 V2000
    0.1560    4.4235   27.9579 O   0  0  0  0  0  0  0  0  0  0  0  0
   -0.7020    3.6434   28.7654 C   0  0  0  0  0  0  0  0  0  0  0  0
   -0.3534    2.1818   28.7980 C   0  0  0  0  0  0  0  0  0  0  0  0
    0.9683    1.8129   28.9829 C   0  0  0  0  0  0  0  0  0  0  0  0
    1.2889    0.4967   29.2801 C   0  0  0  0  0  0  0  0  0  0  0  0
    0.3026   -0.4933   29.3640 C   0  0  0  0  0  0  0  0  0  0  0  0
    0.6029   -1.8981   29.8457 C   0  0  0  0  0  0  0  0  0  0  0  0
    2.1064   -2.2641   29.8976 C   0  0  0  0  0  0  0  0  0  0  0  0
    2.7213   -2.0049   31.2678 C   0  0  0  0  0  0  0  0  0  0  0  0
    1.9240   -2.6252   32.4204 C   0  0  0  0  0  0  0  0  0  0  0  0
    0.6094   -3.1568   32.0528 N   0  0  0  0  0  0  0  0  0  0  0  0
    0.4948   -4.5887   31.7955 C   0  0  0  0  0  0  0  0  0  0  0  0
    1.7541   -5.2214   31.9030 O   0  0  0  0  0  0  0  0  0  0  0  0
   -0.0552   -5.0088   30.4183 C   0  0  0  0  0  0  0  0  0  0  0  0
   -0.1272   -6.5238   30.2748 C   0  0  0  0  0  0  0  0  0  0  0  0
   -0.7388   -7.1455   31.4471 C   0  0  0  0  0  0  0  0  0  0  0  0
   -1.3812   -8.2834   31.5041 N   0  0  0  0  0  0  0  0  0  0  0  0
   -1.7638   -8.4503   32.8065 N   0  0  0  0  0  0  0  0  0  0  0  0
   -1.3289   -7.4317   33.5109 C   0  0  0  0  0  0  0  0  0  0  0  0
   -0.7516   -6.5495   32.6702 N   0  0  0  0  0  0  0  0  0  0  0  0
   -0.3573   -5.1875   32.9397 C   0  0  0  0  0  0  0  0  0  0  0  0
   -0.1255   -2.2416   31.1986 C   0  0  0  0  0  0  0  0  0  0  0  0
   -0.4170   -1.1118   32.0090 O   0  0  0  0  0  0  0  0  0  0  0  0
   -1.0151   -0.1458   29.0555 C   0  0  0  0  0  0  0  0  0  0  0  0
   -1.3361    1.1866   28.8168 C   0  0  0  0  0  0  0  0  0  0  0  0
    0.0178    5.3473   28.2264 H   0  0  0  0  0  0  0  0  0  0  0  0
   -1.7414    3.8338   28.4857 H   0  0  0  0  0  0  0  0  0  0  0  0
   -0.5224    4.0113   29.7772 H   0  0  0  0  0  0  0  0  0  0  0  0
    1.7536    2.5653   28.9560 H   0  0  0  0  0  0  0  0  0  0  0  0
    2.3341    0.2904   29.4837 H   0  0  0  0  0  0  0  0  0  0  0  0
    0.1896   -2.5562   29.0680 H   0  0  0  0  0  0  0  0  0  0  0  0
    2.2264   -3.3300   29.6771 H   0  0  0  0  0  0  0  0  0  0  0  0
    2.6868   -1.7726   29.1091 H   0  0  0  0  0  0  0  0  0  0  0  0
    3.7446   -2.3985   31.2806 H   0  0  0  0  0  0  0  0  0  0  0  0
    2.8023   -0.9247   31.4351 H   0  0  0  0  0  0  0  0  0  0  0  0
    2.5406   -3.3521   32.9624 H   0  0  0  0  0  0  0  0  0  0  0  0
    1.7722   -1.8398   33.1739 H   0  0  0  0  0  0  0  0  0  0  0  0
    2.3135   -4.8698   31.1913 H   0  0  0  0  0  0  0  0  0  0  0  0
    0.5818   -4.6619   29.6021 H   0  0  0  0  0  0  0  0  0  0  0  0
   -1.0418   -4.5719   30.2669 H   0  0  0  0  0  0  0  0  0  0  0  0
   -0.7406   -6.7870   29.4177 H   0  0  0  0  0  0  0  0  0  0  0  0
    0.8671   -6.9413   30.1046 H   0  0  0  0  0  0  0  0  0  0  0  0
   -1.4529   -7.2914   34.5746 H   0  0  0  0  0  0  0  0  0  0  0  0
   -1.2854   -4.6209   33.0683 H   0  0  0  0  0  0  0  0  0  0  0  0
    0.1943   -5.1941   33.8877 H   0  0  0  0  0  0  0  0  0  0  0  0
   -1.1205   -2.6337   30.9642 H   0  0  0  0  0  0  0  0  0  0  0  0
   -0.5114   -1.4799   32.9023 H   0  0  0  0  0  0  0  0  0  0  0  0
   -1.8056   -0.8892   29.0751 H   0  0  0  0  0  0  0  0  0  0  0  0
   -2.3677    1.4766   28.6805 H   0  0  0  0  0  0  0  0  0  0  0  0
  1  2  1  0
  2  3  1  0
  3  4  2  0
  4  5  1  0
  5  6  2  0
  6  7  1  0
  7  8  1  0
  8  9  1  0
  9 10  1  0
 10 11  1  0
 11 12  1  0
 12 13  1  0
 12 14  1  0
 14 15  1  0
 15 16  1  0
 16 17  2  0
 17 18  1  0
 18 19  2  0
 19 20  1  0
 20 21  1  0
 11 22  1  0
 22 23  1  0
  6 24  1  0
 24 25  2  0
 25  3  1  0
 22  7  1  0
 21 12  1  0
 20 16  1  0
  1 26  1  0
  2 27  1  0
  2 28  1  0
  4 29  1  0
  5 30  1  0
  7 31  1  0
  8 32  1  0
  8 33  1  0
  9 34  1  0
  9 35  1  0
 10 36  1  0
 10 37  1  0
 13 38  1  0
 14 39  1  0
 14 40  1  0
 15 41  1  0
 15 42  1  0
 19 43  1  0
 21 44  1  0
 21 45  1  0
 22 46  1  0
 23 47  1  0
 24 48  1  0
 25 49  1  0
M  END
>  <Energy>  (400) 
23.099429633552873

>  <compound_id>  (400) 
4089

>  <target_id>  (400) 
1

>  <reference_id>  (400) 
186

>  <inspiration_ids>  (400) 
[142, 186]

>  <energy_score>  (400) 
-28.512690589732188

>  <distance_score>  (400) 
1.8538680077705147

>  <path>  (400) 
/opt/xchem-fragalysis-2/maxwin/BulkDock/SCRATCH/505735/C4089-P186/C4089-P186.minimised.mol

>  <scratch_subdir>  (400) 
/opt/xchem-fragalysis-2/maxwin/BulkDock/SCRATCH/505735/C4089-P186

>  <fragmenstein_runtime>  (400) 
3.417720079421997

>  <fragmenstein_outcome>  (400) 
too moved

>  <fragmenstein_mode>  (400) 
expansion

>  <fragmenstein_error>  (400) 


$$$$
C4090-P142
     RDKit          3D

 46 45  0  0  0  0  0  0  0  0999 V2000
   -1.0574   -8.7063   31.4933 C   0  0  0  0  0  0  0  0  0  0  0  0
   -1.9510   -7.9488   32.4087 C   0  0  0  0  0  0  0  0  0  0  0  0
   -1.3272   -6.6902   32.6512 O   0  0  0  0  0  0  0  0  0  0  0  0
   -0.6844   -6.6137   33.8370 C   0  0  0  0  0  0  0  0  0  0  0  0
   -1.1154   -6.9734   34.9179 O   0  0  0  0  0  0  0  0  0  0  0  0
    0.7023   -6.1207   33.6684 C   0  0  0  0  0  0  0  0  0  0  0  0
    1.2804   -5.6055   32.5696 C   0  0  0  0  0  0  0  0  0  0  0  0
    0.6004   -5.2155   31.2761 C   0  0  0  0  0  0  0  0  0  0  0  0
    0.5804   -6.3246   30.2563 C   0  0  0  0  0  0  0  0  0  0  0  0
    1.2335   -4.0061   30.5873 C   0  0  0  0  0  0  0  0  0  0  0  0
    1.3983   -2.7997   31.5036 C   0  0  0  0  0  0  0  0  0  0  0  0
    1.8270   -1.6631   30.7084 N   0  0  0  0  0  0  0  0  0  0  0  0
    2.2315   -0.5461   31.5246 C   0  0  0  0  0  0  0  0  0  0  0  0
    1.9925    0.5880   30.7020 N   0  0  0  0  0  0  0  0  0  0  0  0
    1.0332    1.7876   30.8976 C   0  0  0  0  0  0  0  0  0  0  0  0
    1.2724    2.7171   29.7278 C   0  0  0  0  0  0  0  0  0  0  0  0
    0.2366    1.9910   31.7249 O   0  0  0  0  0  0  0  0  0  0  0  0
    0.2160   -2.4638   32.2919 N   0  0  0  0  0  0  0  0  0  0  0  0
   -0.9347   -2.0632   31.5036 N   0  0  0  0  0  0  0  0  0  0  0  0
   -1.9786   -1.6747   32.4542 C   0  0  0  0  0  0  0  0  0  0  0  0
   -1.0164   -8.2512   30.5065 H   0  0  0  0  0  0  0  0  0  0  0  0
   -0.0734   -8.6410   31.9194 H   0  0  0  0  0  0  0  0  0  0  0  0
   -1.3554   -9.7335   31.3429 H   0  0  0  0  0  0  0  0  0  0  0  0
   -2.1523   -8.4877   33.3339 H   0  0  0  0  0  0  0  0  0  0  0  0
   -2.8705   -7.8143   31.8534 H   0  0  0  0  0  0  0  0  0  0  0  0
    1.2980   -6.2754   34.5644 H   0  0  0  0  0  0  0  0  0  0  0  0
    2.3434   -5.3804   32.6377 H   0  0  0  0  0  0  0  0  0  0  0  0
   -0.4378   -4.9395   31.4890 H   0  0  0  0  0  0  0  0  0  0  0  0
    1.3446   -6.1924   29.4832 H   0  0  0  0  0  0  0  0  0  0  0  0
    0.7673   -7.2871   30.7042 H   0  0  0  0  0  0  0  0  0  0  0  0
   -0.3949   -6.3375   29.7675 H   0  0  0  0  0  0  0  0  0  0  0  0
    2.2247   -4.2719   30.1912 H   0  0  0  0  0  0  0  0  0  0  0  0
    0.6178   -3.7398   29.7152 H   0  0  0  0  0  0  0  0  0  0  0  0
    2.2051   -3.0281   32.2115 H   0  0  0  0  0  0  0  0  0  0  0  0
    1.0180   -1.3702   30.1717 H   0  0  0  0  0  0  0  0  0  0  0  0
    3.2993   -0.5902   31.7556 H   0  0  0  0  0  0  0  0  0  0  0  0
    1.6632   -0.4069   32.4486 H   0  0  0  0  0  0  0  0  0  0  0  0
    2.4953    0.6957   29.8308 H   0  0  0  0  0  0  0  0  0  0  0  0
    0.6730    3.6232   29.8562 H   0  0  0  0  0  0  0  0  0  0  0  0
    2.3268    3.0031   29.6832 H   0  0  0  0  0  0  0  0  0  0  0  0
    0.9747    2.2259   28.7974 H   0  0  0  0  0  0  0  0  0  0  0  0
   -0.0162   -3.2513   32.9044 H   0  0  0  0  0  0  0  0  0  0  0  0
   -0.7263   -1.2198   30.9596 H   0  0  0  0  0  0  0  0  0  0  0  0
   -2.2788   -2.5190   33.0829 H   0  0  0  0  0  0  0  0  0  0  0  0
   -2.8646   -1.3466   31.9019 H   0  0  0  0  0  0  0  0  0  0  0  0
   -1.6564   -0.8453   33.0937 H   0  0  0  0  0  0  0  0  0  0  0  0
  1  2  1  0
  2  3  1  0
  3  4  1  0
  4  5  2  0
  4  6  1  0
  6  7  2  3
  7  8  1  0
  8  9  1  0
  8 10  1  0
 10 11  1  0
 11 12  1  0
 12 13  1  0
 13 14  1  0
 14 15  1  0
 15 16  1  0
 15 17  2  0
 11 18  1  0
 18 19  1  0
 19 20  1  0
  1 21  1  0
  1 22  1  0
  1 23  1  0
  2 24  1  0
  2 25  1  0
  6 26  1  0
  7 27  1  0
  8 28  1  0
  9 29  1  0
  9 30  1  0
  9 31  1  0
 10 32  1  0
 10 33  1  0
 11 34  1  0
 12 35  1  0
 13 36  1  0
 13 37  1  0
 14 38  1  0
 16 39  1  0
 16 40  1  0
 16 41  1  0
 18 42  1  0
 19 43  1  0
 20 44  1  0
 20 45  1  0
 20 46  1  0
M  END
>  <Energy>  (401) 
-27.209429571211842

>  <compound_id>  (401) 
4090

>  <target_id>  (401) 
1

>  <reference_id>  (401) 
142

>  <inspiration_ids>  (401) 
[142, 187]

>  <energy_score>  (401) 
-26.49987063971605

>  <distance_score>  (401) 
2.3936422216488413

>  <path>  (401) 
/opt/xchem-fragalysis-2/maxwin/BulkDock/SCRATCH/505735/C4090-P142/C4090-P142.minimised.mol

>  <scratch_subdir>  (401) 
/opt/xchem-fragalysis-2/maxwin/BulkDock/SCRATCH/505735/C4090-P142

>  <fragmenstein_runtime>  (401) 
7.083776950836182

>  <fragmenstein_outcome>  (401) 
too moved

>  <fragmenstein_mode>  (401) 
expansion

>  <fragmenstein_error>  (401) 


$$$$
C4090-P187
     RDKit          3D

 46 45  0  0  0  0  0  0  0  0999 V2000
   -1.5800   -7.4915   34.8721 C   0  0  0  0  0  0  0  0  0  0  0  0
   -0.4662   -7.4067   35.8923 C   0  0  0  0  0  0  0  0  0  0  0  0
    0.7580   -7.1394   35.1991 O   0  0  0  0  0  0  0  0  0  0  0  0
    0.9277   -5.8497   34.8330 C   0  0  0  0  0  0  0  0  0  0  0  0
    0.3324   -4.8576   35.2069 O   0  0  0  0  0  0  0  0  0  0  0  0
    1.9889   -5.8518   33.8238 C   0  0  0  0  0  0  0  0  0  0  0  0
    1.7195   -5.9003   32.5114 C   0  0  0  0  0  0  0  0  0  0  0  0
    0.3857   -5.8438   31.7970 C   0  0  0  0  0  0  0  0  0  0  0  0
   -0.0920   -7.2255   31.3540 C   0  0  0  0  0  0  0  0  0  0  0  0
    0.5586   -4.9437   30.5589 C   0  0  0  0  0  0  0  0  0  0  0  0
    0.6913   -3.4584   30.9534 C   0  0  0  0  0  0  0  0  0  0  0  0
    1.7722   -2.8433   30.1795 N   0  0  0  0  0  0  0  0  0  0  0  0
    2.0426   -1.4690   30.5506 C   0  0  0  0  0  0  0  0  0  0  0  0
    1.2709   -0.6720   29.6611 N   0  0  0  0  0  0  0  0  0  0  0  0
    0.4026    0.5819   29.9305 C   0  0  0  0  0  0  0  0  0  0  0  0
   -0.2700    0.9140   28.6151 C   0  0  0  0  0  0  0  0  0  0  0  0
    0.2485    1.1984   30.9084 O   0  0  0  0  0  0  0  0  0  0  0  0
   -0.5579   -2.7853   30.6321 N   0  0  0  0  0  0  0  0  0  0  0  0
   -1.5363   -2.8667   31.6971 N   0  0  0  0  0  0  0  0  0  0  0  0
   -1.2719   -1.8581   32.7311 C   0  0  0  0  0  0  0  0  0  0  0  0
   -1.7687   -6.5069   34.4416 H   0  0  0  0  0  0  0  0  0  0  0  0
   -1.2983   -8.1309   34.0340 H   0  0  0  0  0  0  0  0  0  0  0  0
   -2.5002   -7.8788   35.3094 H   0  0  0  0  0  0  0  0  0  0  0  0
   -0.3461   -8.3640   36.4013 H   0  0  0  0  0  0  0  0  0  0  0  0
   -0.6654   -6.6481   36.6573 H   0  0  0  0  0  0  0  0  0  0  0  0
    2.9998   -5.8686   34.2095 H   0  0  0  0  0  0  0  0  0  0  0  0
    2.5814   -5.9192   31.8555 H   0  0  0  0  0  0  0  0  0  0  0  0
   -0.3796   -5.4214   32.4580 H   0  0  0  0  0  0  0  0  0  0  0  0
    0.5166   -7.6266   30.5385 H   0  0  0  0  0  0  0  0  0  0  0  0
   -0.0664   -7.9379   32.1813 H   0  0  0  0  0  0  0  0  0  0  0  0
   -1.1248   -7.1766   30.9943 H   0  0  0  0  0  0  0  0  0  0  0  0
    1.4296   -5.2802   29.9773 H   0  0  0  0  0  0  0  0  0  0  0  0
   -0.2925   -5.0813   29.8794 H   0  0  0  0  0  0  0  0  0  0  0  0
    0.9549   -3.3591   32.0124 H   0  0  0  0  0  0  0  0  0  0  0  0
    2.6139   -3.3767   30.3815 H   0  0  0  0  0  0  0  0  0  0  0  0
    3.0916   -1.2298   30.3510 H   0  0  0  0  0  0  0  0  0  0  0  0
    1.8253   -1.2181   31.5937 H   0  0  0  0  0  0  0  0  0  0  0  0
    1.1074   -1.0008   28.7152 H   0  0  0  0  0  0  0  0  0  0  0  0
   -0.9493    0.1056   28.3308 H   0  0  0  0  0  0  0  0  0  0  0  0
   -0.8470    1.8367   28.7227 H   0  0  0  0  0  0  0  0  0  0  0  0
    0.4831    1.0657   27.8372 H   0  0  0  0  0  0  0  0  0  0  0  0
   -0.3471   -1.8254   30.3591 H   0  0  0  0  0  0  0  0  0  0  0  0
   -2.4642   -2.6645   31.3137 H   0  0  0  0  0  0  0  0  0  0  0  0
   -0.3140   -2.0210   33.2334 H   0  0  0  0  0  0  0  0  0  0  0  0
   -2.0524   -1.9219   33.4960 H   0  0  0  0  0  0  0  0  0  0  0  0
   -1.2935   -0.8452   32.3161 H   0  0  0  0  0  0  0  0  0  0  0  0
  1  2  1  0
  2  3  1  0
  3  4  1  0
  4  5  2  0
  4  6  1  0
  6  7  2  3
  7  8  1  0
  8  9  1  0
  8 10  1  0
 10 11  1  0
 11 12  1  0
 12 13  1  0
 13 14  1  0
 14 15  1  0
 15 16  1  0
 15 17  2  0
 11 18  1  0
 18 19  1  0
 19 20  1  0
  1 21  1  0
  1 22  1  0
  1 23  1  0
  2 24  1  0
  2 25  1  0
  6 26  1  0
  7 27  1  0
  8 28  1  0
  9 29  1  0
  9 30  1  0
  9 31  1  0
 10 32  1  0
 10 33  1  0
 11 34  1  0
 12 35  1  0
 13 36  1  0
 13 37  1  0
 14 38  1  0
 16 39  1  0
 16 40  1  0
 16 41  1  0
 18 42  1  0
 19 43  1  0
 20 44  1  0
 20 45  1  0
 20 46  1  0
M  END
>  <Energy>  (402) 
-34.097298148187228

>  <compound_id>  (402) 
4090

>  <target_id>  (402) 
1

>  <reference_id>  (402) 
187

>  <inspiration_ids>  (402) 
[142, 187]

>  <energy_score>  (402) 
-33.387739216688885

>  <distance_score>  (402) 
1.9868881785733286

>  <path>  (402) 
/opt/xchem-fragalysis-2/maxwin/BulkDock/SCRATCH/505735/C4090-P187/C4090-P187.minimised.mol

>  <scratch_subdir>  (402) 
/opt/xchem-fragalysis-2/maxwin/BulkDock/SCRATCH/505735/C4090-P187

>  <fragmenstein_runtime>  (402) 
6.022095441818237

>  <fragmenstein_outcome>  (402) 
too moved

>  <fragmenstein_mode>  (402) 
expansion

>  <fragmenstein_error>  (402) 


$$$$
C4090-P142
     RDKit          2D

  0  0  0  0  0  0  0  0  0  0999 V2000
M  END
>  <compound_id>  (403) 
4090

>  <target_id>  (403) 
1

>  <reference_id>  (403) 
142

>  <inspiration_ids>  (403) 
[142, 188]

>  <energy_score>  (403) 
nan

>  <distance_score>  (403) 
nan

>  <path>  (403) 
/opt/xchem-fragalysis-2/maxwin/BulkDock/SCRATCH/505735/C4090-P142/C4090-P142.minimised.mol

>  <scratch_subdir>  (403) 
/opt/xchem-fragalysis-2/maxwin/BulkDock/SCRATCH/505735/C4090-P142

>  <fragmenstein_runtime>  (403) 
1.2003881931304932

>  <fragmenstein_outcome>  (403) 
crashed

>  <fragmenstein_mode>  (403) 
expansion

>  <fragmenstein_error>  (403) 
PoisonError: None has poison atoms [10, 17, 10, 10, 17, 10, 10, 17, 10, 10, 17, 10, 10, 11, 10, 10, 11, 10, 10, 11, 10, 10, 11, 10]

$$$$
C4091-P142
     RDKit          3D

 44 47  0  0  0  0  0  0  0  0999 V2000
   -2.9339   -1.5316   34.3626 C   0  0  0  0  0  0  0  0  0  0  0  0
   -3.3584   -1.1429   32.6900 S   0  0  0  0  0  0  0  0  0  0  0  0
   -4.3221   -0.0601   32.7468 O   0  0  0  0  0  0  0  0  0  0  0  0
   -3.6192   -2.3991   32.0072 O   0  0  0  0  0  0  0  0  0  0  0  0
   -1.9294   -0.4703   31.8944 C   0  0  0  0  0  0  0  0  0  0  0  0
   -1.9264   -0.2615   30.5158 C   0  0  0  0  0  0  0  0  0  0  0  0
   -0.7226   -0.1942   29.8429 C   0  0  0  0  0  0  0  0  0  0  0  0
   -0.7894   -0.0748   28.4855 O   0  0  0  0  0  0  0  0  0  0  0  0
    0.4485   -0.4219   30.5752 C   0  0  0  0  0  0  0  0  0  0  0  0
    1.5257   -1.4126   30.1135 C   0  0  0  0  0  0  0  0  0  0  0  0
    1.6501   -2.7286   31.0128 C   0  0  0  0  0  0  0  0  0  0  0  0
    0.4771   -3.6362   30.9217 N   0  0  0  0  0  0  0  0  0  0  0  0
    0.0982   -4.5908   31.8852 C   0  0  0  0  0  0  0  0  0  0  0  0
   -0.1503   -4.3362   33.1861 C   0  0  0  0  0  0  0  0  0  0  0  0
   -0.6353   -5.4036   34.0685 C   0  0  0  0  0  0  0  0  0  0  0  0
   -0.9098   -6.6431   33.6266 C   0  0  0  0  0  0  0  0  0  0  0  0
   -0.6799   -6.9313   32.2667 C   0  0  0  0  0  0  0  0  0  0  0  0
   -0.8918   -8.0007   31.5311 N   0  0  0  0  0  0  0  0  0  0  0  0
   -0.3693   -7.7620   30.2872 N   0  0  0  0  0  0  0  0  0  0  0  0
    0.1510   -6.5578   30.3109 C   0  0  0  0  0  0  0  0  0  0  0  0
   -0.1308   -5.9275   31.4855 N   0  0  0  0  0  0  0  0  0  0  0  0
   -0.3650   -3.4005   29.7374 C   0  0  0  0  0  0  0  0  0  0  0  0
    0.4614   -2.8951   28.5547 C   0  0  0  0  0  0  0  0  0  0  0  0
    1.3168   -1.7577   28.7429 O   0  0  0  0  0  0  0  0  0  0  0  0
    0.4161   -0.1319   31.9421 C   0  0  0  0  0  0  0  0  0  0  0  0
    2.1327    0.3367   33.0561 I   0  0  0  0  0  0  0  0  0  0  0  0
   -0.7796   -0.2395   32.6233 C   0  0  0  0  0  0  0  0  0  0  0  0
   -2.6792   -0.6141   34.8962 H   0  0  0  0  0  0  0  0  0  0  0  0
   -3.8125   -1.9783   34.8338 H   0  0  0  0  0  0  0  0  0  0  0  0
   -2.1066   -2.2405   34.3780 H   0  0  0  0  0  0  0  0  0  0  0  0
   -2.8381   -0.2488   29.9494 H   0  0  0  0  0  0  0  0  0  0  0  0
    0.0807   -0.3193   28.1119 H   0  0  0  0  0  0  0  0  0  0  0  0
    2.4874   -0.8878   30.1415 H   0  0  0  0  0  0  0  0  0  0  0  0
    1.8498   -2.4927   32.0591 H   0  0  0  0  0  0  0  0  0  0  0  0
    2.5139   -3.2960   30.6434 H   0  0  0  0  0  0  0  0  0  0  0  0
   -0.0368   -3.3448   33.6055 H   0  0  0  0  0  0  0  0  0  0  0  0
   -0.8190   -5.1473   35.1089 H   0  0  0  0  0  0  0  0  0  0  0  0
   -1.2973   -7.4203   34.2793 H   0  0  0  0  0  0  0  0  0  0  0  0
    0.7277   -6.0778   29.5401 H   0  0  0  0  0  0  0  0  0  0  0  0
   -0.8694   -4.3122   29.4127 H   0  0  0  0  0  0  0  0  0  0  0  0
   -1.1714   -2.7209   30.0027 H   0  0  0  0  0  0  0  0  0  0  0  0
   -0.2410   -2.6263   27.7710 H   0  0  0  0  0  0  0  0  0  0  0  0
    1.0999   -3.7041   28.1846 H   0  0  0  0  0  0  0  0  0  0  0  0
   -0.7857   -0.1990   33.7065 H   0  0  0  0  0  0  0  0  0  0  0  0
  1  2  1  0
  2  3  2  0
  2  4  2  0
  2  5  1  0
  5  6  2  0
  6  7  1  0
  7  8  1  0
  7  9  2  0
  9 10  1  0
 10 11  1  0
 11 12  1  0
 12 13  1  0
 13 14  2  0
 14 15  1  0
 15 16  2  0
 16 17  1  0
 17 18  2  0
 18 19  1  0
 19 20  2  0
 20 21  1  0
 12 22  1  0
 22 23  1  0
 23 24  1  0
  9 25  1  0
 25 26  1  0
 25 27  2  0
 27  5  1  0
 24 10  1  0
 21 13  1  0
 21 17  1  0
  1 28  1  0
  1 29  1  0
  1 30  1  0
  6 31  1  0
  8 32  1  0
 10 33  1  0
 11 34  1  0
 11 35  1  0
 14 36  1  0
 15 37  1  0
 16 38  1  0
 20 39  1  0
 22 40  1  0
 22 41  1  0
 23 42  1  0
 23 43  1  0
 27 44  1  0
M  END
>  <Energy>  (404) 
194.45512957119413

>  <compound_id>  (404) 
4091

>  <target_id>  (404) 
1

>  <reference_id>  (404) 
142

>  <inspiration_ids>  (404) 
[142, 189]

>  <energy_score>  (404) 
-39.45339528478672

>  <distance_score>  (404) 
2.1856948790890343

>  <path>  (404) 
/opt/xchem-fragalysis-2/maxwin/BulkDock/SCRATCH/505735/C4091-P142/C4091-P142.minimised.mol

>  <scratch_subdir>  (404) 
/opt/xchem-fragalysis-2/maxwin/BulkDock/SCRATCH/505735/C4091-P142

>  <fragmenstein_runtime>  (404) 
45.178229331970215

>  <fragmenstein_outcome>  (404) 
too moved

>  <fragmenstein_mode>  (404) 
expansion

>  <fragmenstein_error>  (404) 


$$$$
C4091-P189
     RDKit          3D

 44 47  0  0  0  0  0  0  0  0999 V2000
   -2.6736   -1.5148   33.9826 C   0  0  0  0  0  0  0  0  0  0  0  0
   -3.2356   -1.0807   32.3628 S   0  0  0  0  0  0  0  0  0  0  0  0
   -4.1753    0.0097   32.5175 O   0  0  0  0  0  0  0  0  0  0  0  0
   -3.5474   -2.3317   31.6929 O   0  0  0  0  0  0  0  0  0  0  0  0
   -1.8832   -0.3845   31.4682 C   0  0  0  0  0  0  0  0  0  0  0  0
   -1.8365   -0.4108   30.0707 C   0  0  0  0  0  0  0  0  0  0  0  0
   -0.6013   -0.3019   29.4621 C   0  0  0  0  0  0  0  0  0  0  0  0
   -0.4987   -0.2419   28.1060 O   0  0  0  0  0  0  0  0  0  0  0  0
    0.5367   -0.3547   30.2802 C   0  0  0  0  0  0  0  0  0  0  0  0
    1.6159   -1.4644   30.1261 C   0  0  0  0  0  0  0  0  0  0  0  0
    1.5989   -2.6169   31.2555 C   0  0  0  0  0  0  0  0  0  0  0  0
    0.6128   -3.7172   31.0265 N   0  0  0  0  0  0  0  0  0  0  0  0
    0.2089   -4.6854   31.9679 C   0  0  0  0  0  0  0  0  0  0  0  0
   -0.0407   -4.4591   33.2742 C   0  0  0  0  0  0  0  0  0  0  0  0
   -0.5693   -5.5282   34.1264 C   0  0  0  0  0  0  0  0  0  0  0  0
   -0.8758   -6.7467   33.6515 C   0  0  0  0  0  0  0  0  0  0  0  0
   -0.6391   -7.0116   32.2880 C   0  0  0  0  0  0  0  0  0  0  0  0
   -0.8854   -8.0593   31.5334 N   0  0  0  0  0  0  0  0  0  0  0  0
   -0.3461   -7.8180   30.2985 N   0  0  0  0  0  0  0  0  0  0  0  0
    0.2207   -6.6340   30.3441 C   0  0  0  0  0  0  0  0  0  0  0  0
   -0.0486   -6.0113   31.5306 N   0  0  0  0  0  0  0  0  0  0  0  0
   -0.2150   -3.4941   29.8398 C   0  0  0  0  0  0  0  0  0  0  0  0
    0.6325   -3.0647   28.6509 C   0  0  0  0  0  0  0  0  0  0  0  0
    1.6405   -2.0740   28.8422 O   0  0  0  0  0  0  0  0  0  0  0  0
    0.4168    0.1718   31.5666 C   0  0  0  0  0  0  0  0  0  0  0  0
    2.0513    0.8666   32.6754 I   0  0  0  0  0  0  0  0  0  0  0  0
   -0.8060    0.0940   32.1936 C   0  0  0  0  0  0  0  0  0  0  0  0
   -3.4914   -2.0318   34.4901 H   0  0  0  0  0  0  0  0  0  0  0  0
   -1.8153   -2.1792   33.9030 H   0  0  0  0  0  0  0  0  0  0  0  0
   -2.4272   -0.6132   34.5450 H   0  0  0  0  0  0  0  0  0  0  0  0
   -2.7067   -0.6099   29.4666 H   0  0  0  0  0  0  0  0  0  0  0  0
   -1.3270   -0.4965   27.6593 H   0  0  0  0  0  0  0  0  0  0  0  0
    2.5813   -0.9516   30.2114 H   0  0  0  0  0  0  0  0  0  0  0  0
    1.4609   -2.1981   32.2541 H   0  0  0  0  0  0  0  0  0  0  0  0
    2.5874   -3.0928   31.2358 H   0  0  0  0  0  0  0  0  0  0  0  0
    0.1041   -3.4860   33.7260 H   0  0  0  0  0  0  0  0  0  0  0  0
   -0.7484   -5.2863   35.1709 H   0  0  0  0  0  0  0  0  0  0  0  0
   -1.2887   -7.5300   34.2778 H   0  0  0  0  0  0  0  0  0  0  0  0
    0.8149   -6.1708   29.5740 H   0  0  0  0  0  0  0  0  0  0  0  0
   -0.9897   -2.7773   30.0910 H   0  0  0  0  0  0  0  0  0  0  0  0
   -0.7723   -4.3834   29.5390 H   0  0  0  0  0  0  0  0  0  0  0  0
   -0.0574   -2.6943   27.9001 H   0  0  0  0  0  0  0  0  0  0  0  0
    1.1456   -3.9402   28.2411 H   0  0  0  0  0  0  0  0  0  0  0  0
   -0.8868    0.3284   33.2496 H   0  0  0  0  0  0  0  0  0  0  0  0
  1  2  1  0
  2  3  2  0
  2  4  2  0
  2  5  1  0
  5  6  2  0
  6  7  1  0
  7  8  1  0
  7  9  2  0
  9 10  1  0
 10 11  1  0
 11 12  1  0
 12 13  1  0
 13 14  2  0
 14 15  1  0
 15 16  2  0
 16 17  1  0
 17 18  2  0
 18 19  1  0
 19 20  2  0
 20 21  1  0
 12 22  1  0
 22 23  1  0
 23 24  1  0
  9 25  1  0
 25 26  1  0
 25 27  2  0
 27  5  1  0
 24 10  1  0
 21 13  1  0
 21 17  1  0
  1 28  1  0
  1 29  1  0
  1 30  1  0
  6 31  1  0
  8 32  1  0
 10 33  1  0
 11 34  1  0
 11 35  1  0
 14 36  1  0
 15 37  1  0
 16 38  1  0
 20 39  1  0
 22 40  1  0
 22 41  1  0
 23 42  1  0
 23 43  1  0
 27 44  1  0
M  END
>  <Energy>  (405) 
212.01114193016016

>  <compound_id>  (405) 
4091

>  <target_id>  (405) 
1

>  <reference_id>  (405) 
189

>  <inspiration_ids>  (405) 
[142, 189]

>  <energy_score>  (405) 
-21.897382925821887

>  <distance_score>  (405) 
1.9306041957126832

>  <path>  (405) 
/opt/xchem-fragalysis-2/maxwin/BulkDock/SCRATCH/505735/C4091-P189/C4091-P189.minimised.mol

>  <scratch_subdir>  (405) 
/opt/xchem-fragalysis-2/maxwin/BulkDock/SCRATCH/505735/C4091-P189

>  <fragmenstein_runtime>  (405) 
46.34430384635925

>  <fragmenstein_outcome>  (405) 
too moved

>  <fragmenstein_mode>  (405) 
expansion

>  <fragmenstein_error>  (405) 


$$$$
C4092-P142
     RDKit          3D

 55 60  0  0  0  0  0  0  0  0999 V2000
   -0.8290   -3.1655   32.1607 O   0  0  0  0  0  0  0  0  0  0  0  0
   -0.0656   -2.8396   31.0878 C   0  0  0  0  0  0  0  0  0  0  0  0
   -0.4779   -1.7616   30.3186 C   0  0  0  0  0  0  0  0  0  0  0  0
    0.2302   -1.4167   29.1717 C   0  0  0  0  0  0  0  0  0  0  0  0
   -0.3123   -0.4502   28.1673 C   0  0  0  0  0  0  0  0  0  0  0  0
   -1.8424   -0.4180   27.9529 C   0  0  0  0  0  0  0  0  0  0  0  0
   -2.0894    0.8723   27.1517 C   0  0  0  0  0  0  0  0  0  0  0  0
   -3.3194    1.4025   27.2300 F   0  0  0  0  0  0  0  0  0  0  0  0
   -1.9096    0.6644   25.8436 F   0  0  0  0  0  0  0  0  0  0  0  0
   -1.0740    1.7392   27.7905 C   0  0  0  0  0  0  0  0  0  0  0  0
   -1.1201    3.1099   27.8373 C   0  0  0  0  0  0  0  0  0  0  0  0
   -0.1410    3.7473   28.5775 C   0  0  0  0  0  0  0  0  0  0  0  0
    0.8557    3.0137   29.2416 C   0  0  0  0  0  0  0  0  0  0  0  0
    0.9006    1.6242   29.1723 C   0  0  0  0  0  0  0  0  0  0  0  0
   -0.0827    0.9967   28.4442 C   0  0  0  0  0  0  0  0  0  0  0  0
    1.4538   -2.0360   28.9116 C   0  0  0  0  0  0  0  0  0  0  0  0
    1.8541   -3.1173   29.6726 C   0  0  0  0  0  0  0  0  0  0  0  0
    1.0594   -3.5865   30.7293 C   0  0  0  0  0  0  0  0  0  0  0  0
    1.4872   -4.9241   31.2791 C   0  0  0  0  0  0  0  0  0  0  0  0
    1.1692   -5.3299   32.7066 C   0  0  0  0  0  0  0  0  0  0  0  0
   -0.1931   -5.9022   32.9162 N   0  0  0  0  0  0  0  0  0  0  0  0
   -0.4810   -6.2264   34.2541 C   0  0  0  0  0  0  0  0  0  0  0  0
   -0.8695   -7.4524   34.6482 C   0  0  0  0  0  0  0  0  0  0  0  0
   -0.7385   -7.8197   36.0393 C   0  0  0  0  0  0  0  0  0  0  0  0
   -0.2860   -6.9767   36.9800 C   0  0  0  0  0  0  0  0  0  0  0  0
   -0.0580   -5.6359   36.6241 C   0  0  0  0  0  0  0  0  0  0  0  0
    0.2969   -4.5826   37.3275 N   0  0  0  0  0  0  0  0  0  0  0  0
    0.3362   -3.5100   36.4735 N   0  0  0  0  0  0  0  0  0  0  0  0
    0.0076   -3.9487   35.2789 C   0  0  0  0  0  0  0  0  0  0  0  0
   -0.1953   -5.3011   35.2876 N   0  0  0  0  0  0  0  0  0  0  0  0
   -0.5377   -6.8785   31.8575 C   0  0  0  0  0  0  0  0  0  0  0  0
   -0.1978   -6.3641   30.4741 C   0  0  0  0  0  0  0  0  0  0  0  0
    1.1783   -5.9879   30.3506 O   0  0  0  0  0  0  0  0  0  0  0  0
   -1.5270   -2.5045   32.2968 H   0  0  0  0  0  0  0  0  0  0  0  0
   -1.3870   -1.2303   30.5777 H   0  0  0  0  0  0  0  0  0  0  0  0
    0.1647   -0.6603   27.2106 H   0  0  0  0  0  0  0  0  0  0  0  0
   -2.2057   -1.3083   27.4330 H   0  0  0  0  0  0  0  0  0  0  0  0
   -2.3556   -0.3554   28.9162 H   0  0  0  0  0  0  0  0  0  0  0  0
   -1.9160    3.6721   27.3548 H   0  0  0  0  0  0  0  0  0  0  0  0
   -0.1602    4.8322   28.6690 H   0  0  0  0  0  0  0  0  0  0  0  0
    1.6054    3.5495   29.8202 H   0  0  0  0  0  0  0  0  0  0  0  0
    1.6812    1.0706   29.6827 H   0  0  0  0  0  0  0  0  0  0  0  0
    2.0472   -1.7426   28.0482 H   0  0  0  0  0  0  0  0  0  0  0  0
    2.7551   -3.6511   29.3761 H   0  0  0  0  0  0  0  0  0  0  0  0
    2.5842   -4.8712   31.2766 H   0  0  0  0  0  0  0  0  0  0  0  0
    1.8796   -6.1195   32.9930 H   0  0  0  0  0  0  0  0  0  0  0  0
    1.3899   -4.4771   33.3483 H   0  0  0  0  0  0  0  0  0  0  0  0
   -1.1174   -8.2445   33.9582 H   0  0  0  0  0  0  0  0  0  0  0  0
   -0.9471   -8.8504   36.2791 H   0  0  0  0  0  0  0  0  0  0  0  0
   -0.1263   -7.2879   38.0052 H   0  0  0  0  0  0  0  0  0  0  0  0
   -0.1119   -3.3351   34.4042 H   0  0  0  0  0  0  0  0  0  0  0  0
   -1.6057   -7.1181   31.8971 H   0  0  0  0  0  0  0  0  0  0  0  0
    0.0273   -7.7998   32.0259 H   0  0  0  0  0  0  0  0  0  0  0  0
   -0.7970   -5.4977   30.2058 H   0  0  0  0  0  0  0  0  0  0  0  0
   -0.4023   -7.1662   29.7653 H   0  0  0  0  0  0  0  0  0  0  0  0
  1  2  1  0
  2  3  2  0
  3  4  1  0
  4  5  1  0
  5  6  1  0
  6  7  1  0
  7  8  1  0
  7  9  1  0
  7 10  1  0
 10 11  2  0
 11 12  1  0
 12 13  2  0
 13 14  1  0
 14 15  2  0
  4 16  2  0
 16 17  1  0
 17 18  2  0
 18 19  1  0
 19 20  1  0
 20 21  1  0
 21 22  1  0
 22 23  2  0
 23 24  1  0
 24 25  2  0
 25 26  1  0
 26 27  2  0
 27 28  1  0
 28 29  2  0
 29 30  1  0
 21 31  1  0
 31 32  1  0
 32 33  1  0
 18  2  1  0
 33 19  1  0
 15  5  1  0
 30 22  1  0
 15 10  1  0
 30 26  1  0
  1 34  1  0
  3 35  1  0
  5 36  1  0
  6 37  1  0
  6 38  1  0
 11 39  1  0
 12 40  1  0
 13 41  1  0
 14 42  1  0
 16 43  1  0
 17 44  1  0
 19 45  1  0
 20 46  1  0
 20 47  1  0
 23 48  1  0
 24 49  1  0
 25 50  1  0
 29 51  1  0
 31 52  1  0
 31 53  1  0
 32 54  1  0
 32 55  1  0
M  END
>  <Energy>  (406) 
206.7286482711767

>  <compound_id>  (406) 
4092

>  <target_id>  (406) 
1

>  <reference_id>  (406) 
142

>  <inspiration_ids>  (406) 
[142, 190]

>  <energy_score>  (406) 
-44.75046794346895

>  <distance_score>  (406) 
2.46964186014623

>  <path>  (406) 
/opt/xchem-fragalysis-2/maxwin/BulkDock/SCRATCH/505735/C4092-P142/C4092-P142.minimised.mol

>  <scratch_subdir>  (406) 
/opt/xchem-fragalysis-2/maxwin/BulkDock/SCRATCH/505735/C4092-P142

>  <fragmenstein_runtime>  (406) 
88.74716520309448

>  <fragmenstein_outcome>  (406) 
too moved

>  <fragmenstein_mode>  (406) 
expansion

>  <fragmenstein_error>  (406) 


$$$$
C4092-P190
     RDKit          3D

 55 60  0  0  0  0  0  0  0  0999 V2000
   -1.3189   -2.8107   32.1787 O   0  0  0  0  0  0  0  0  0  0  0  0
   -0.4867   -2.5818   31.1297 C   0  0  0  0  0  0  0  0  0  0  0  0
   -0.5665   -1.3835   30.4483 C   0  0  0  0  0  0  0  0  0  0  0  0
    0.2263   -1.1914   29.3130 C   0  0  0  0  0  0  0  0  0  0  0  0
   -0.1543   -0.1877   28.2650 C   0  0  0  0  0  0  0  0  0  0  0  0
   -1.6581   -0.1816   27.8948 C   0  0  0  0  0  0  0  0  0  0  0  0
   -1.9429    1.1894   27.2606 C   0  0  0  0  0  0  0  0  0  0  0  0
   -3.1996    1.6372   27.4217 F   0  0  0  0  0  0  0  0  0  0  0  0
   -1.7678    1.1991   25.9337 F   0  0  0  0  0  0  0  0  0  0  0  0
   -0.9560    2.0100   27.9894 C   0  0  0  0  0  0  0  0  0  0  0  0
   -0.9807    3.3788   28.0630 C   0  0  0  0  0  0  0  0  0  0  0  0
    0.0049    3.9853   28.8198 C   0  0  0  0  0  0  0  0  0  0  0  0
    0.9822    3.2241   29.4804 C   0  0  0  0  0  0  0  0  0  0  0  0
    1.0084    1.8376   29.3801 C   0  0  0  0  0  0  0  0  0  0  0  0
    0.0250    1.2424   28.6262 C   0  0  0  0  0  0  0  0  0  0  0  0
    1.3053   -2.0416   29.0727 C   0  0  0  0  0  0  0  0  0  0  0  0
    1.3850   -3.2346   29.7618 C   0  0  0  0  0  0  0  0  0  0  0  0
    0.3866   -3.5702   30.6873 C   0  0  0  0  0  0  0  0  0  0  0  0
    0.2639   -5.0225   31.0309 C   0  0  0  0  0  0  0  0  0  0  0  0
    1.0558   -5.4024   32.2666 C   0  0  0  0  0  0  0  0  0  0  0  0
    0.7926   -6.8225   32.6522 N   0  0  0  0  0  0  0  0  0  0  0  0
    0.5004   -7.0575   33.9939 C   0  0  0  0  0  0  0  0  0  0  0  0
   -0.6061   -7.6848   34.4327 C   0  0  0  0  0  0  0  0  0  0  0  0
   -0.7651   -7.9396   35.8425 C   0  0  0  0  0  0  0  0  0  0  0  0
    0.1204   -7.5202   36.7627 C   0  0  0  0  0  0  0  0  0  0  0  0
    1.2595   -6.8104   36.3353 C   0  0  0  0  0  0  0  0  0  0  0  0
    2.2911   -6.3166   36.9846 N   0  0  0  0  0  0  0  0  0  0  0  0
    3.1757   -5.8305   36.0547 N   0  0  0  0  0  0  0  0  0  0  0  0
    2.6548   -6.0430   34.8680 C   0  0  0  0  0  0  0  0  0  0  0  0
    1.4227   -6.6301   34.9748 N   0  0  0  0  0  0  0  0  0  0  0  0
    0.1013   -7.5911   31.5979 C   0  0  0  0  0  0  0  0  0  0  0  0
   -1.1644   -6.9041   31.1547 C   0  0  0  0  0  0  0  0  0  0  0  0
   -1.0857   -5.4708   31.1785 O   0  0  0  0  0  0  0  0  0  0  0  0
   -1.7613   -1.9858   32.4337 H   0  0  0  0  0  0  0  0  0  0  0  0
   -1.3237   -0.6539   30.7173 H   0  0  0  0  0  0  0  0  0  0  0  0
    0.4395   -0.3578   27.3646 H   0  0  0  0  0  0  0  0  0  0  0  0
   -1.9276   -1.0105   27.2393 H   0  0  0  0  0  0  0  0  0  0  0  0
   -2.2576   -0.2955   28.7988 H   0  0  0  0  0  0  0  0  0  0  0  0
   -1.7561    3.9653   27.5765 H   0  0  0  0  0  0  0  0  0  0  0  0
    0.0068    5.0694   28.9253 H   0  0  0  0  0  0  0  0  0  0  0  0
    1.7387    3.7373   30.0707 H   0  0  0  0  0  0  0  0  0  0  0  0
    1.7862    1.2616   29.8698 H   0  0  0  0  0  0  0  0  0  0  0  0
    1.9869   -1.8539   28.2465 H   0  0  0  0  0  0  0  0  0  0  0  0
    2.1384   -3.9578   29.4585 H   0  0  0  0  0  0  0  0  0  0  0  0
    0.6654   -5.5647   30.1618 H   0  0  0  0  0  0  0  0  0  0  0  0
    2.1259   -5.2751   32.0685 H   0  0  0  0  0  0  0  0  0  0  0  0
    0.7824   -4.7288   33.0896 H   0  0  0  0  0  0  0  0  0  0  0  0
   -1.3877   -8.0595   33.7862 H   0  0  0  0  0  0  0  0  0  0  0  0
   -1.6140   -8.5588   36.0938 H   0  0  0  0  0  0  0  0  0  0  0  0
    0.0372   -7.7569   37.8167 H   0  0  0  0  0  0  0  0  0  0  0  0
    3.1343   -5.8071   33.9336 H   0  0  0  0  0  0  0  0  0  0  0  0
   -0.1490   -8.6068   31.9086 H   0  0  0  0  0  0  0  0  0  0  0  0
    0.7596   -7.6882   30.7316 H   0  0  0  0  0  0  0  0  0  0  0  0
   -1.9918   -7.2101   31.7930 H   0  0  0  0  0  0  0  0  0  0  0  0
   -1.3942   -7.2328   30.1373 H   0  0  0  0  0  0  0  0  0  0  0  0
  1  2  1  0
  2  3  2  0
  3  4  1  0
  4  5  1  0
  5  6  1  0
  6  7  1  0
  7  8  1  0
  7  9  1  0
  7 10  1  0
 10 11  2  0
 11 12  1  0
 12 13  2  0
 13 14  1  0
 14 15  2  0
  4 16  2  0
 16 17  1  0
 17 18  2  0
 18 19  1  0
 19 20  1  0
 20 21  1  0
 21 22  1  0
 22 23  2  0
 23 24  1  0
 24 25  2  0
 25 26  1  0
 26 27  2  0
 27 28  1  0
 28 29  2  0
 29 30  1  0
 21 31  1  0
 31 32  1  0
 32 33  1  0
 18  2  1  0
 33 19  1  0
 15  5  1  0
 30 22  1  0
 15 10  1  0
 30 26  1  0
  1 34  1  0
  3 35  1  0
  5 36  1  0
  6 37  1  0
  6 38  1  0
 11 39  1  0
 12 40  1  0
 13 41  1  0
 14 42  1  0
 16 43  1  0
 17 44  1  0
 19 45  1  0
 20 46  1  0
 20 47  1  0
 23 48  1  0
 24 49  1  0
 25 50  1  0
 29 51  1  0
 31 52  1  0
 31 53  1  0
 32 54  1  0
 32 55  1  0
M  END
>  <Energy>  (407) 
215.55923498681278

>  <compound_id>  (407) 
4092

>  <target_id>  (407) 
1

>  <reference_id>  (407) 
190

>  <inspiration_ids>  (407) 
[142, 190]

>  <energy_score>  (407) 
-35.91988122782925

>  <distance_score>  (407) 
2.3979267311730714

>  <path>  (407) 
/opt/xchem-fragalysis-2/maxwin/BulkDock/SCRATCH/505735/C4092-P190/C4092-P190.minimised.mol

>  <scratch_subdir>  (407) 
/opt/xchem-fragalysis-2/maxwin/BulkDock/SCRATCH/505735/C4092-P190

>  <fragmenstein_runtime>  (407) 
79.22556686401367

>  <fragmenstein_outcome>  (407) 
too moved

>  <fragmenstein_mode>  (407) 
expansion

>  <fragmenstein_error>  (407) 


$$$$
C2000-P142
     RDKit          3D

 80 85  0  0  0  0  0  0  0  0999 V2000
    3.7856   -2.4121   28.3225 O   0  0  0  0  0  0  0  0  0  0  0  0
    3.6588   -1.2358   28.1477 C   0  0  0  0  0  0  0  0  0  0  0  0
    4.2100   -0.3730   27.1387 N   0  0  0  0  0  0  0  0  0  0  0  0
    5.0118   -0.6708   25.9657 C   0  0  0  0  0  0  0  0  0  0  0  0
    5.5137    0.6076   25.2971 C   0  0  0  0  0  0  0  0  0  0  0  0
    6.3736    0.3015   24.0663 C   0  0  0  0  0  0  0  0  0  0  0  0
    6.8426   -1.1516   23.9942 C   0  0  0  0  0  0  0  0  0  0  0  0
    7.2899   -1.6131   25.3029 N   0  0  0  0  0  0  0  0  0  0  0  0
    6.2029   -1.6068   26.2938 C   0  0  0  0  0  0  0  0  0  0  0  0
    2.7548   -0.3955   29.1015 C   0  0  0  0  0  0  0  0  0  0  0  0
    1.3815   -0.1951   28.4207 C   0  0  0  0  0  0  0  0  0  0  0  0
    0.5227   -1.4615   28.4354 C   0  0  0  0  0  0  0  0  0  0  0  0
    0.3843   -2.1381   29.7937 C   0  0  0  0  0  0  0  0  0  0  0  0
   -0.5051   -1.4123   30.6416 O   0  0  0  0  0  0  0  0  0  0  0  0
   -1.8082   -1.9509   30.6193 C   0  0  0  0  0  0  0  0  0  0  0  0
   -1.9050   -3.0395   31.5191 O   0  0  0  0  0  0  0  0  0  0  0  0
    1.7179   -2.2579   30.5113 C   0  0  0  0  0  0  0  0  0  0  0  0
    2.5780   -0.9616   30.5495 C   0  0  0  0  0  0  0  0  0  0  0  0
    3.9323   -1.2651   31.2407 C   0  0  0  0  0  0  0  0  0  0  0  0
    3.7482   -1.8100   32.6626 C   0  0  0  0  0  0  0  0  0  0  0  0
    2.7924   -0.9944   33.5564 C   0  0  0  0  0  0  0  0  0  0  0  0
    2.2271   -1.8320   34.7376 C   0  0  0  0  0  0  0  0  0  0  0  0
    1.3210   -3.0180   34.2924 C   0  0  0  0  0  0  0  0  0  0  0  0
    0.6621   -3.6539   35.4445 N   0  0  0  0  0  0  0  0  0  0  0  0
    0.3043   -5.0063   35.5084 C   0  0  0  0  0  0  0  0  0  0  0  0
    0.3861   -5.6598   36.6904 C   0  0  0  0  0  0  0  0  0  0  0  0
    0.0023   -7.0455   36.8003 C   0  0  0  0  0  0  0  0  0  0  0  0
   -0.4888   -7.7116   35.7454 C   0  0  0  0  0  0  0  0  0  0  0  0
   -0.5744   -7.0815   34.4809 C   0  0  0  0  0  0  0  0  0  0  0  0
   -0.9694   -7.5154   33.3022 N   0  0  0  0  0  0  0  0  0  0  0  0
   -0.8261   -6.4891   32.4069 N   0  0  0  0  0  0  0  0  0  0  0  0
   -0.3623   -5.4517   33.0688 C   0  0  0  0  0  0  0  0  0  0  0  0
   -0.1648   -5.7541   34.3927 N   0  0  0  0  0  0  0  0  0  0  0  0
   -0.0245   -2.6652   36.3102 C   0  0  0  0  0  0  0  0  0  0  0  0
    0.9588   -1.5719   36.7279 C   0  0  0  0  0  0  0  0  0  0  0  0
    1.4929   -0.9106   35.5769 O   0  0  0  0  0  0  0  0  0  0  0  0
    1.6484   -0.2550   32.8369 C   0  0  0  0  0  0  0  0  0  0  0  0
    1.9521    0.1679   31.4152 C   0  0  0  0  0  0  0  0  0  0  0  0
    3.9552    0.5848   27.3478 H   0  0  0  0  0  0  0  0  0  0  0  0
    4.3450   -1.1958   25.2725 H   0  0  0  0  0  0  0  0  0  0  0  0
    6.1107    1.1845   26.0163 H   0  0  0  0  0  0  0  0  0  0  0  0
    4.6758    1.2569   25.0159 H   0  0  0  0  0  0  0  0  0  0  0  0
    5.8069    0.5246   23.1566 H   0  0  0  0  0  0  0  0  0  0  0  0
    7.2386    0.9764   24.0634 H   0  0  0  0  0  0  0  0  0  0  0  0
    7.6702   -1.2247   23.2799 H   0  0  0  0  0  0  0  0  0  0  0  0
    6.0433   -1.7987   23.6127 H   0  0  0  0  0  0  0  0  0  0  0  0
    7.6800   -2.5521   25.2339 H   0  0  0  0  0  0  0  0  0  0  0  0
    6.6411   -1.3334   27.2611 H   0  0  0  0  0  0  0  0  0  0  0  0
    5.8200   -2.6287   26.4082 H   0  0  0  0  0  0  0  0  0  0  0  0
    3.2326    0.5896   29.2004 H   0  0  0  0  0  0  0  0  0  0  0  0
    0.8311    0.6210   28.9001 H   0  0  0  0  0  0  0  0  0  0  0  0
    1.5190    0.1211   27.3804 H   0  0  0  0  0  0  0  0  0  0  0  0
    0.9885   -2.1884   27.7665 H   0  0  0  0  0  0  0  0  0  0  0  0
   -0.4655   -1.2210   28.0275 H   0  0  0  0  0  0  0  0  0  0  0  0
    0.0029   -3.1581   29.6447 H   0  0  0  0  0  0  0  0  0  0  0  0
   -2.0801   -2.2855   29.6144 H   0  0  0  0  0  0  0  0  0  0  0  0
   -2.5065   -1.1724   30.9383 H   0  0  0  0  0  0  0  0  0  0  0  0
   -1.9384   -2.6317   32.4015 H   0  0  0  0  0  0  0  0  0  0  0  0
    2.2911   -3.0629   30.0377 H   0  0  0  0  0  0  0  0  0  0  0  0
    1.5110   -2.6177   31.5209 H   0  0  0  0  0  0  0  0  0  0  0  0
    4.5453   -0.3551   31.2803 H   0  0  0  0  0  0  0  0  0  0  0  0
    4.5144   -1.9981   30.6722 H   0  0  0  0  0  0  0  0  0  0  0  0
    4.7302   -1.8577   33.1511 H   0  0  0  0  0  0  0  0  0  0  0  0
    3.4280   -2.8529   32.5865 H   0  0  0  0  0  0  0  0  0  0  0  0
    3.4071   -0.1953   33.9981 H   0  0  0  0  0  0  0  0  0  0  0  0
    3.0677   -2.2218   35.3273 H   0  0  0  0  0  0  0  0  0  0  0  0
    0.5275   -2.6702   33.6289 H   0  0  0  0  0  0  0  0  0  0  0  0
    1.9248   -3.7602   33.7624 H   0  0  0  0  0  0  0  0  0  0  0  0
    0.7510   -5.1717   37.5880 H   0  0  0  0  0  0  0  0  0  0  0  0
    0.1070   -7.5395   37.7619 H   0  0  0  0  0  0  0  0  0  0  0  0
   -0.8001   -8.7406   35.8498 H   0  0  0  0  0  0  0  0  0  0  0  0
   -0.1610   -4.4883   32.6360 H   0  0  0  0  0  0  0  0  0  0  0  0
   -0.8537   -2.2271   35.7409 H   0  0  0  0  0  0  0  0  0  0  0  0
   -0.4476   -3.1302   37.2072 H   0  0  0  0  0  0  0  0  0  0  0  0
    0.4437   -0.8195   37.3330 H   0  0  0  0  0  0  0  0  0  0  0  0
    1.7817   -1.9801   37.3264 H   0  0  0  0  0  0  0  0  0  0  0  0
    1.3875    0.6415   33.4155 H   0  0  0  0  0  0  0  0  0  0  0  0
    0.7308   -0.8449   32.8245 H   0  0  0  0  0  0  0  0  0  0  0  0
    1.0274    0.5593   30.9826 H   0  0  0  0  0  0  0  0  0  0  0  0
    2.6391    1.0252   31.4478 H   0  0  0  0  0  0  0  0  0  0  0  0
  1  2  2  0
  2  3  1  0
  3  4  1  0
  4  5  1  0
  5  6  1  0
  6  7  1  0
  7  8  1  0
  8  9  1  0
  2 10  1  0
 10 11  1  0
 11 12  1  0
 12 13  1  0
 13 14  1  0
 14 15  1  0
 15 16  1  0
 13 17  1  0
 17 18  1  0
 18 19  1  0
 19 20  1  0
 20 21  1  0
 21 22  1  0
 22 23  1  0
 23 24  1  0
 24 25  1  0
 25 26  2  0
 26 27  1  0
 27 28  2  0
 28 29  1  0
 29 30  2  0
 30 31  1  0
 31 32  2  0
 32 33  1  0
 24 34  1  0
 34 35  1  0
 35 36  1  0
 21 37  1  0
 37 38  1  0
  9  4  1  0
 18 10  1  0
 36 22  1  0
 38 18  1  0
 33 25  1  0
 33 29  1  0
  3 39  1  0
  4 40  1  0
  5 41  1  0
  5 42  1  0
  6 43  1  0
  6 44  1  0
  7 45  1  0
  7 46  1  0
  8 47  1  0
  9 48  1  0
  9 49  1  0
 10 50  1  0
 11 51  1  0
 11 52  1  0
 12 53  1  0
 12 54  1  0
 13 55  1  0
 15 56  1  0
 15 57  1  0
 16 58  1  0
 17 59  1  0
 17 60  1  0
 19 61  1  0
 19 62  1  0
 20 63  1  0
 20 64  1  0
 21 65  1  0
 22 66  1  0
 23 67  1  0
 23 68  1  0
 26 69  1  0
 27 70  1  0
 28 71  1  0
 32 72  1  0
 34 73  1  0
 34 74  1  0
 35 75  1  0
 35 76  1  0
 37 77  1  0
 37 78  1  0
 38 79  1  0
 38 80  1  0
M  END
>  <Energy>  (408) 
156.4025487611766

>  <compound_id>  (408) 
2000

>  <target_id>  (408) 
1

>  <reference_id>  (408) 
142

>  <inspiration_ids>  (408) 
[142, 194]

>  <energy_score>  (408) 
-81.7628988228538

>  <distance_score>  (408) 
3.694441566850954

>  <path>  (408) 
/opt/xchem-fragalysis-2/maxwin/BulkDock/SCRATCH/505735/C2000-P142/C2000-P142.minimised.mol

>  <scratch_subdir>  (408) 
/opt/xchem-fragalysis-2/maxwin/BulkDock/SCRATCH/505735/C2000-P142

>  <fragmenstein_runtime>  (408) 
57.23117709159851

>  <fragmenstein_outcome>  (408) 
too moved

>  <fragmenstein_mode>  (408) 
expansion

>  <fragmenstein_error>  (408) 


$$$$
C2000-P194
     RDKit          3D

 80 85  0  0  0  0  0  0  0  0999 V2000
   -1.7872    0.4309   27.9306 O   0  0  0  0  0  0  0  0  0  0  0  0
   -1.0786    1.2148   28.4268 C   0  0  0  0  0  0  0  0  0  0  0  0
   -0.7817    2.6962   28.0389 N   0  0  0  0  0  0  0  0  0  0  0  0
   -1.2295    3.4817   26.8991 C   0  0  0  0  0  0  0  0  0  0  0  0
   -2.4493    2.9291   26.1598 C   0  0  0  0  0  0  0  0  0  0  0  0
   -2.6262    3.5675   24.7762 C   0  0  0  0  0  0  0  0  0  0  0  0
   -1.7836    4.8221   24.5775 C   0  0  0  0  0  0  0  0  0  0  0  0
   -0.3538    4.5779   24.7711 N   0  0  0  0  0  0  0  0  0  0  0  0
   -0.0656    3.6943   25.9060 C   0  0  0  0  0  0  0  0  0  0  0  0
   -0.1325    0.8926   29.6064 C   0  0  0  0  0  0  0  0  0  0  0  0
    1.2471    0.5667   28.9988 C   0  0  0  0  0  0  0  0  0  0  0  0
    1.3877   -0.8953   28.5715 C   0  0  0  0  0  0  0  0  0  0  0  0
    1.0278   -1.8589   29.6942 C   0  0  0  0  0  0  0  0  0  0  0  0
    1.1964   -3.2066   29.2959 O   0  0  0  0  0  0  0  0  0  0  0  0
    1.0436   -4.1436   30.3416 C   0  0  0  0  0  0  0  0  0  0  0  0
   -0.2920   -4.5731   30.3450 O   0  0  0  0  0  0  0  0  0  0  0  0
   -0.4100   -1.6102   30.0652 C   0  0  0  0  0  0  0  0  0  0  0  0
   -0.5892   -0.2022   30.6256 C   0  0  0  0  0  0  0  0  0  0  0  0
    0.3048   -0.0603   31.9070 C   0  0  0  0  0  0  0  0  0  0  0  0
   -0.4359    0.5381   33.0746 C   0  0  0  0  0  0  0  0  0  0  0  0
   -1.6298   -0.3364   33.4617 C   0  0  0  0  0  0  0  0  0  0  0  0
   -1.2292   -1.4385   34.4648 C   0  0  0  0  0  0  0  0  0  0  0  0
   -0.8111   -2.8384   33.9701 C   0  0  0  0  0  0  0  0  0  0  0  0
   -0.6154   -3.7837   35.1022 N   0  0  0  0  0  0  0  0  0  0  0  0
    0.0960   -4.9879   34.9870 C   0  0  0  0  0  0  0  0  0  0  0  0
    1.0180   -5.3330   35.9185 C   0  0  0  0  0  0  0  0  0  0  0  0
    1.7068   -6.5948   35.8610 C   0  0  0  0  0  0  0  0  0  0  0  0
    1.4270   -7.4766   34.8945 C   0  0  0  0  0  0  0  0  0  0  0  0
    0.4544   -7.1726   33.9012 C   0  0  0  0  0  0  0  0  0  0  0  0
   -0.0173   -7.8570   32.8785 N   0  0  0  0  0  0  0  0  0  0  0  0
   -0.9096   -7.0767   32.2087 N   0  0  0  0  0  0  0  0  0  0  0  0
   -0.9573   -5.9313   32.8488 C   0  0  0  0  0  0  0  0  0  0  0  0
   -0.1499   -5.9272   33.9547 N   0  0  0  0  0  0  0  0  0  0  0  0
   -0.8302   -3.1826   36.4457 C   0  0  0  0  0  0  0  0  0  0  0  0
   -2.0407   -2.2455   36.5227 C   0  0  0  0  0  0  0  0  0  0  0  0
   -2.3853   -1.6065   35.2955 O   0  0  0  0  0  0  0  0  0  0  0  0
   -2.4373   -0.8378   32.2561 C   0  0  0  0  0  0  0  0  0  0  0  0
   -2.0785   -0.1110   30.9730 C   0  0  0  0  0  0  0  0  0  0  0  0
   -0.0517    3.0631   28.6363 H   0  0  0  0  0  0  0  0  0  0  0  0
   -1.4905    4.4579   27.3274 H   0  0  0  0  0  0  0  0  0  0  0  0
   -3.3481    3.0881   26.7669 H   0  0  0  0  0  0  0  0  0  0  0  0
   -2.3721    1.8467   26.0148 H   0  0  0  0  0  0  0  0  0  0  0  0
   -2.3432    2.8371   24.0081 H   0  0  0  0  0  0  0  0  0  0  0  0
   -3.6849    3.7972   24.6100 H   0  0  0  0  0  0  0  0  0  0  0  0
   -1.9407    5.2148   23.5665 H   0  0  0  0  0  0  0  0  0  0  0  0
   -2.1055    5.6124   25.2627 H   0  0  0  0  0  0  0  0  0  0  0  0
    0.0492    4.1838   23.9213 H   0  0  0  0  0  0  0  0  0  0  0  0
    0.8031    4.1012   26.4374 H   0  0  0  0  0  0  0  0  0  0  0  0
    0.2528    2.7203   25.5202 H   0  0  0  0  0  0  0  0  0  0  0  0
   -0.0390    1.8239   30.1826 H   0  0  0  0  0  0  0  0  0  0  0  0
    1.4623    1.2041   28.1325 H   0  0  0  0  0  0  0  0  0  0  0  0
    2.0330    0.7913   29.7297 H   0  0  0  0  0  0  0  0  0  0  0  0
    0.7483   -1.0867   27.7043 H   0  0  0  0  0  0  0  0  0  0  0  0
    2.4127   -1.0873   28.2317 H   0  0  0  0  0  0  0  0  0  0  0  0
    1.7265   -1.6800   30.5181 H   0  0  0  0  0  0  0  0  0  0  0  0
    1.3198   -3.7409   31.3217 H   0  0  0  0  0  0  0  0  0  0  0  0
    1.6843   -5.0057   30.1332 H   0  0  0  0  0  0  0  0  0  0  0  0
   -0.4368   -4.8751   29.4283 H   0  0  0  0  0  0  0  0  0  0  0  0
   -0.7278   -2.3359   30.8159 H   0  0  0  0  0  0  0  0  0  0  0  0
   -1.0576   -1.7958   29.1974 H   0  0  0  0  0  0  0  0  0  0  0  0
    1.1919    0.5533   31.7182 H   0  0  0  0  0  0  0  0  0  0  0  0
    0.6933   -1.0297   32.2319 H   0  0  0  0  0  0  0  0  0  0  0  0
   -0.7757    1.5435   32.8063 H   0  0  0  0  0  0  0  0  0  0  0  0
    0.2448    0.6784   33.9224 H   0  0  0  0  0  0  0  0  0  0  0  0
   -2.3002    0.3473   34.0062 H   0  0  0  0  0  0  0  0  0  0  0  0
   -0.4292   -1.0265   35.0954 H   0  0  0  0  0  0  0  0  0  0  0  0
    0.1058   -2.7807   33.3787 H   0  0  0  0  0  0  0  0  0  0  0  0
   -1.6078   -3.2437   33.3538 H   0  0  0  0  0  0  0  0  0  0  0  0
    1.2807   -4.6867   36.7486 H   0  0  0  0  0  0  0  0  0  0  0  0
    2.4370   -6.8192   36.6334 H   0  0  0  0  0  0  0  0  0  0  0  0
    1.9456   -8.4198   34.8912 H   0  0  0  0  0  0  0  0  0  0  0  0
   -1.5394   -5.0829   32.5539 H   0  0  0  0  0  0  0  0  0  0  0  0
   -0.9586   -3.9581   37.2115 H   0  0  0  0  0  0  0  0  0  0  0  0
    0.0721   -2.6181   36.7158 H   0  0  0  0  0  0  0  0  0  0  0  0
   -2.9210   -2.7809   36.8712 H   0  0  0  0  0  0  0  0  0  0  0  0
   -1.8504   -1.4675   37.2715 H   0  0  0  0  0  0  0  0  0  0  0  0
   -3.5034   -0.6752   32.4639 H   0  0  0  0  0  0  0  0  0  0  0  0
   -2.3566   -1.9115   32.0942 H   0  0  0  0  0  0  0  0  0  0  0  0
   -2.3520    0.9221   31.0714 H   0  0  0  0  0  0  0  0  0  0  0  0
   -2.6939   -0.5138   30.1658 H   0  0  0  0  0  0  0  0  0  0  0  0
  1  2  2  0
  2  3  1  0
  3  4  1  0
  4  5  1  0
  5  6  1  0
  6  7  1  0
  7  8  1  0
  8  9  1  0
  2 10  1  0
 10 11  1  0
 11 12  1  0
 12 13  1  0
 13 14  1  0
 14 15  1  0
 15 16  1  0
 13 17  1  0
 17 18  1  0
 18 19  1  0
 19 20  1  0
 20 21  1  0
 21 22  1  0
 22 23  1  0
 23 24  1  0
 24 25  1  0
 25 26  2  0
 26 27  1  0
 27 28  2  0
 28 29  1  0
 29 30  2  0
 30 31  1  0
 31 32  2  0
 32 33  1  0
 24 34  1  0
 34 35  1  0
 35 36  1  0
 21 37  1  0
 37 38  1  0
  9  4  1  0
 18 10  1  0
 36 22  1  0
 38 18  1  0
 33 25  1  0
 33 29  1  0
  3 39  1  0
  4 40  1  0
  5 41  1  0
  5 42  1  0
  6 43  1  0
  6 44  1  0
  7 45  1  0
  7 46  1  0
  8 47  1  0
  9 48  1  0
  9 49  1  0
 10 50  1  0
 11 51  1  0
 11 52  1  0
 12 53  1  0
 12 54  1  0
 13 55  1  0
 15 56  1  0
 15 57  1  0
 16 58  1  0
 17 59  1  0
 17 60  1  0
 19 61  1  0
 19 62  1  0
 20 63  1  0
 20 64  1  0
 21 65  1  0
 22 66  1  0
 23 67  1  0
 23 68  1  0
 26 69  1  0
 27 70  1  0
 28 71  1  0
 32 72  1  0
 34 73  1  0
 34 74  1  0
 35 75  1  0
 35 76  1  0
 37 77  1  0
 37 78  1  0
 38 79  1  0
 38 80  1  0
M  END
>  <Energy>  (409) 
190.51901069775531

>  <compound_id>  (409) 
2000

>  <target_id>  (409) 
1

>  <reference_id>  (409) 
194

>  <inspiration_ids>  (409) 
[142, 194]

>  <energy_score>  (409) 
-48.14913593639005

>  <distance_score>  (409) 
2.957829641930648

>  <path>  (409) 
/opt/xchem-fragalysis-2/maxwin/BulkDock/SCRATCH/505735/C2000-P194/C2000-P194.minimised.mol

>  <scratch_subdir>  (409) 
/opt/xchem-fragalysis-2/maxwin/BulkDock/SCRATCH/505735/C2000-P194

>  <fragmenstein_runtime>  (409) 
28.096250534057617

>  <fragmenstein_outcome>  (409) 
too moved

>  <fragmenstein_mode>  (409) 
expansion

>  <fragmenstein_error>  (409) 


$$$$
C4093-P142
     RDKit          3D

 60 62  0  0  0  0  0  0  0  0999 V2000
   -1.0211   -9.1518   31.1481 C   0  0  0  0  0  0  0  0  0  0  0  0
   -0.4224   -8.6129   29.8683 C   0  0  0  0  0  0  0  0  0  0  0  0
   -0.9197   -7.3067   29.7135 O   0  0  0  0  0  0  0  0  0  0  0  0
   -0.2809   -6.5934   30.7752 N   0  0  0  0  0  0  0  0  0  0  0  0
    0.5471   -5.5671   30.1392 C   0  0  0  0  0  0  0  0  0  0  0  0
   -1.2205   -6.1007   31.7000 N   0  0  0  0  0  0  0  0  0  0  0  0
   -0.5614   -5.6594   32.8419 C   0  0  0  0  0  0  0  0  0  0  0  0
   -0.0283   -6.5658   33.7296 C   0  0  0  0  0  0  0  0  0  0  0  0
    1.0532   -6.1371   34.4550 C   0  0  0  0  0  0  0  0  0  0  0  0
    1.5390   -4.8428   34.2407 C   0  0  0  0  0  0  0  0  0  0  0  0
    0.8991   -3.9863   33.3559 C   0  0  0  0  0  0  0  0  0  0  0  0
    1.4033   -2.6961   33.1183 N   0  0  0  0  0  0  0  0  0  0  0  0
    0.7348   -1.7978   34.0809 C   0  0  0  0  0  0  0  0  0  0  0  0
    0.1900   -0.5340   33.4391 C   0  0  0  0  0  0  0  0  0  0  0  0
   -0.6980   -0.8439   32.3866 O   0  0  0  0  0  0  0  0  0  0  0  0
   -0.1018   -1.6336   31.3475 C   0  0  0  0  0  0  0  0  0  0  0  0
   -0.2376   -0.7419   30.1328 C   0  0  0  0  0  0  0  0  0  0  0  0
    0.2092    0.5805   30.1961 C   0  0  0  0  0  0  0  0  0  0  0  0
   -0.1434    1.4732   29.2097 C   0  0  0  0  0  0  0  0  0  0  0  0
   -0.9341    1.0535   28.1439 C   0  0  0  0  0  0  0  0  0  0  0  0
   -1.4556    2.3173   27.0396 S   0  0  0  0  0  0  0  0  0  0  0  0
   -2.9498    1.7859   26.2857 C   0  0  0  0  0  0  0  0  0  0  0  0
   -0.4381    2.4117   26.0084 O   0  0  0  0  0  0  0  0  0  0  0  0
   -1.7644    3.4801   27.8502 O   0  0  0  0  0  0  0  0  0  0  0  0
   -1.3195   -0.2709   28.0106 C   0  0  0  0  0  0  0  0  0  0  0  0
   -0.9678   -1.1646   29.0135 C   0  0  0  0  0  0  0  0  0  0  0  0
    1.2964   -2.2753   31.6834 C   0  0  0  0  0  0  0  0  0  0  0  0
    2.5448   -1.4290   31.3430 C   0  0  0  0  0  0  0  0  0  0  0  0
    3.8467   -2.2106   31.5096 C   0  0  0  0  0  0  0  0  0  0  0  0
   -0.1920   -4.3732   32.7159 N   0  0  0  0  0  0  0  0  0  0  0  0
   -0.4203   -8.8655   32.0043 H   0  0  0  0  0  0  0  0  0  0  0  0
   -2.0027   -8.7556   31.4224 H   0  0  0  0  0  0  0  0  0  0  0  0
   -1.0741  -10.2234   31.0329 H   0  0  0  0  0  0  0  0  0  0  0  0
    0.6651   -8.5764   29.8437 H   0  0  0  0  0  0  0  0  0  0  0  0
   -0.6882   -9.2158   29.0059 H   0  0  0  0  0  0  0  0  0  0  0  0
   -0.0404   -4.7393   29.7298 H   0  0  0  0  0  0  0  0  0  0  0  0
    1.2941   -5.1966   30.8413 H   0  0  0  0  0  0  0  0  0  0  0  0
    1.1571   -5.9969   29.3404 H   0  0  0  0  0  0  0  0  0  0  0  0
   -1.5807   -5.2093   31.3607 H   0  0  0  0  0  0  0  0  0  0  0  0
   -0.4033   -7.5782   33.8006 H   0  0  0  0  0  0  0  0  0  0  0  0
    1.5363   -6.7959   35.1690 H   0  0  0  0  0  0  0  0  0  0  0  0
    2.4184   -4.4996   34.7764 H   0  0  0  0  0  0  0  0  0  0  0  0
   -0.1049   -2.2892   34.5950 H   0  0  0  0  0  0  0  0  0  0  0  0
    1.4596   -1.5251   34.8573 H   0  0  0  0  0  0  0  0  0  0  0  0
    0.9832    0.1363   33.1016 H   0  0  0  0  0  0  0  0  0  0  0  0
   -0.3766    0.0305   34.1881 H   0  0  0  0  0  0  0  0  0  0  0  0
   -0.8075   -2.4622   31.2128 H   0  0  0  0  0  0  0  0  0  0  0  0
    0.7724    0.9509   31.0459 H   0  0  0  0  0  0  0  0  0  0  0  0
    0.1633    2.5155   29.2935 H   0  0  0  0  0  0  0  0  0  0  0  0
   -3.7506    1.8004   27.0181 H   0  0  0  0  0  0  0  0  0  0  0  0
   -2.8188    0.8046   25.8398 H   0  0  0  0  0  0  0  0  0  0  0  0
   -3.1904    2.5087   25.5019 H   0  0  0  0  0  0  0  0  0  0  0  0
   -1.9061   -0.6346   27.1735 H   0  0  0  0  0  0  0  0  0  0  0  0
   -1.3262   -2.1916   28.9385 H   0  0  0  0  0  0  0  0  0  0  0  0
    1.3980   -3.1409   31.0232 H   0  0  0  0  0  0  0  0  0  0  0  0
    2.6103   -0.5282   31.9585 H   0  0  0  0  0  0  0  0  0  0  0  0
    2.4957   -1.1053   30.2975 H   0  0  0  0  0  0  0  0  0  0  0  0
    4.0191   -2.4868   32.5543 H   0  0  0  0  0  0  0  0  0  0  0  0
    4.6944   -1.5995   31.1830 H   0  0  0  0  0  0  0  0  0  0  0  0
    3.8369   -3.1243   30.9067 H   0  0  0  0  0  0  0  0  0  0  0  0
  1  2  1  0
  2  3  1  0
  3  4  1  0
  4  5  1  0
  4  6  1  0
  6  7  1  0
  7  8  2  0
  8  9  1  0
  9 10  2  0
 10 11  1  0
 11 12  1  0
 12 13  1  0
 13 14  1  0
 14 15  1  0
 15 16  1  0
 16 17  1  0
 17 18  2  0
 18 19  1  0
 19 20  2  0
 20 21  1  0
 21 22  1  0
 21 23  2  0
 21 24  2  0
 20 25  1  0
 25 26  2  0
 16 27  1  0
 27 28  1  0
 28 29  1  0
 11 30  2  0
 30  7  1  0
 27 12  1  0
 26 17  1  0
  1 31  1  0
  1 32  1  0
  1 33  1  0
  2 34  1  0
  2 35  1  0
  5 36  1  0
  5 37  1  0
  5 38  1  0
  6 39  1  0
  8 40  1  0
  9 41  1  0
 10 42  1  0
 13 43  1  0
 13 44  1  0
 14 45  1  0
 14 46  1  0
 16 47  1  0
 18 48  1  0
 19 49  1  0
 22 50  1  0
 22 51  1  0
 22 52  1  0
 25 53  1  0
 26 54  1  0
 27 55  1  0
 28 56  1  0
 28 57  1  0
 29 58  1  0
 29 59  1  0
 29 60  1  0
M  END
>  <Energy>  (410) 
153.64463529509578

>  <compound_id>  (410) 
4093

>  <target_id>  (410) 
1

>  <reference_id>  (410) 
142

>  <inspiration_ids>  (410) 
[142, 195]

>  <energy_score>  (410) 
-39.303928538882474

>  <distance_score>  (410) 
3.098929694355562

>  <path>  (410) 
/opt/xchem-fragalysis-2/maxwin/BulkDock/SCRATCH/505735/C4093-P142/C4093-P142.minimised.mol

>  <scratch_subdir>  (410) 
/opt/xchem-fragalysis-2/maxwin/BulkDock/SCRATCH/505735/C4093-P142

>  <fragmenstein_runtime>  (410) 
69.12571239471436

>  <fragmenstein_outcome>  (410) 
too moved

>  <fragmenstein_mode>  (410) 
expansion

>  <fragmenstein_error>  (410) 


$$$$
C4093-P195
     RDKit          3D

 60 62  0  0  0  0  0  0  0  0999 V2000
   -2.1429   -8.5764   32.1217 C   0  0  0  0  0  0  0  0  0  0  0  0
   -1.1343   -7.5249   32.1471 C   0  0  0  0  0  0  0  0  0  0  0  0
   -1.6230   -6.4535   32.9199 O   0  0  0  0  0  0  0  0  0  0  0  0
   -0.8214   -6.1856   34.0850 N   0  0  0  0  0  0  0  0  0  0  0  0
   -1.0708   -7.1443   35.1533 C   0  0  0  0  0  0  0  0  0  0  0  0
    0.5307   -5.8973   33.8826 N   0  0  0  0  0  0  0  0  0  0  0  0
    0.8766   -5.3786   32.6084 C   0  0  0  0  0  0  0  0  0  0  0  0
    1.2843   -6.2838   31.6470 C   0  0  0  0  0  0  0  0  0  0  0  0
    1.1136   -6.0054   30.3100 C   0  0  0  0  0  0  0  0  0  0  0  0
    0.7664   -4.7241   29.9730 C   0  0  0  0  0  0  0  0  0  0  0  0
    0.7527   -3.7635   30.9734 C   0  0  0  0  0  0  0  0  0  0  0  0
    1.0369   -2.4485   30.6677 N   0  0  0  0  0  0  0  0  0  0  0  0
    1.6508   -2.0905   29.3853 C   0  0  0  0  0  0  0  0  0  0  0  0
    2.7925   -1.0906   29.5516 C   0  0  0  0  0  0  0  0  0  0  0  0
    2.5572    0.0405   30.3889 O   0  0  0  0  0  0  0  0  0  0  0  0
    1.3649   -0.0504   31.2037 C   0  0  0  0  0  0  0  0  0  0  0  0
    0.2677    0.5669   30.3547 C   0  0  0  0  0  0  0  0  0  0  0  0
   -0.8504   -0.1418   29.9027 C   0  0  0  0  0  0  0  0  0  0  0  0
   -1.6528    0.3887   28.9034 C   0  0  0  0  0  0  0  0  0  0  0  0
   -1.4244    1.6886   28.4692 C   0  0  0  0  0  0  0  0  0  0  0  0
   -2.4372    2.4939   27.2730 S   0  0  0  0  0  0  0  0  0  0  0  0
   -1.6565    2.0343   25.8153 C   0  0  0  0  0  0  0  0  0  0  0  0
   -2.2397    3.9216   27.4249 O   0  0  0  0  0  0  0  0  0  0  0  0
   -3.7401    1.8894   27.1396 O   0  0  0  0  0  0  0  0  0  0  0  0
   -0.3552    2.4405   28.9624 C   0  0  0  0  0  0  0  0  0  0  0  0
    0.4907    1.8735   29.8906 C   0  0  0  0  0  0  0  0  0  0  0  0
    1.1967   -1.4907   31.7810 C   0  0  0  0  0  0  0  0  0  0  0  0
    2.4402   -1.8200   32.6553 C   0  0  0  0  0  0  0  0  0  0  0  0
    2.2169   -1.4211   34.1099 C   0  0  0  0  0  0  0  0  0  0  0  0
    0.6289   -4.1135   32.2691 N   0  0  0  0  0  0  0  0  0  0  0  0
   -3.0430   -8.2381   31.6160 H   0  0  0  0  0  0  0  0  0  0  0  0
   -1.7250   -9.4396   31.6073 H   0  0  0  0  0  0  0  0  0  0  0  0
   -2.3971   -8.7969   33.1559 H   0  0  0  0  0  0  0  0  0  0  0  0
   -0.2430   -7.9942   32.5634 H   0  0  0  0  0  0  0  0  0  0  0  0
   -0.9949   -7.1961   31.1178 H   0  0  0  0  0  0  0  0  0  0  0  0
   -0.5143   -8.0721   35.0003 H   0  0  0  0  0  0  0  0  0  0  0  0
   -2.1342   -7.3850   35.2249 H   0  0  0  0  0  0  0  0  0  0  0  0
   -0.7621   -6.7239   36.1162 H   0  0  0  0  0  0  0  0  0  0  0  0
    1.1666   -6.6330   34.1623 H   0  0  0  0  0  0  0  0  0  0  0  0
    1.5264   -7.2773   31.9580 H   0  0  0  0  0  0  0  0  0  0  0  0
    1.2664   -6.7628   29.5549 H   0  0  0  0  0  0  0  0  0  0  0  0
    0.6616   -4.4567   28.9298 H   0  0  0  0  0  0  0  0  0  0  0  0
    2.0971   -2.9456   28.8657 H   0  0  0  0  0  0  0  0  0  0  0  0
    0.8894   -1.6933   28.7079 H   0  0  0  0  0  0  0  0  0  0  0  0
    3.0980   -0.7137   28.5693 H   0  0  0  0  0  0  0  0  0  0  0  0
    3.6679   -1.6084   29.9615 H   0  0  0  0  0  0  0  0  0  0  0  0
    1.5167    0.6332   32.0493 H   0  0  0  0  0  0  0  0  0  0  0  0
   -1.0575   -1.1564   30.2364 H   0  0  0  0  0  0  0  0  0  0  0  0
   -2.4068   -0.2401   28.4473 H   0  0  0  0  0  0  0  0  0  0  0  0
   -2.1471    2.5211   24.9702 H   0  0  0  0  0  0  0  0  0  0  0  0
   -1.8173    0.9575   25.7829 H   0  0  0  0  0  0  0  0  0  0  0  0
   -0.6041    2.3184   25.8552 H   0  0  0  0  0  0  0  0  0  0  0  0
   -0.1738    3.4616   28.6321 H   0  0  0  0  0  0  0  0  0  0  0  0
    1.3567    2.4373   30.2348 H   0  0  0  0  0  0  0  0  0  0  0  0
    0.2840   -1.5102   32.3920 H   0  0  0  0  0  0  0  0  0  0  0  0
    3.3359   -1.2998   32.2990 H   0  0  0  0  0  0  0  0  0  0  0  0
    2.7051   -2.8809   32.6319 H   0  0  0  0  0  0  0  0  0  0  0  0
    1.3734   -1.9701   34.5408 H   0  0  0  0  0  0  0  0  0  0  0  0
    2.0161   -0.3496   34.2028 H   0  0  0  0  0  0  0  0  0  0  0  0
    3.1070   -1.6504   34.7044 H   0  0  0  0  0  0  0  0  0  0  0  0
  1  2  1  0
  2  3  1  0
  3  4  1  0
  4  5  1  0
  4  6  1  0
  6  7  1  0
  7  8  2  0
  8  9  1  0
  9 10  2  0
 10 11  1  0
 11 12  1  0
 12 13  1  0
 13 14  1  0
 14 15  1  0
 15 16  1  0
 16 17  1  0
 17 18  2  0
 18 19  1  0
 19 20  2  0
 20 21  1  0
 21 22  1  0
 21 23  2  0
 21 24  2  0
 20 25  1  0
 25 26  2  0
 16 27  1  0
 27 28  1  0
 28 29  1  0
 11 30  2  0
 30  7  1  0
 27 12  1  0
 26 17  1  0
  1 31  1  0
  1 32  1  0
  1 33  1  0
  2 34  1  0
  2 35  1  0
  5 36  1  0
  5 37  1  0
  5 38  1  0
  6 39  1  0
  8 40  1  0
  9 41  1  0
 10 42  1  0
 13 43  1  0
 13 44  1  0
 14 45  1  0
 14 46  1  0
 16 47  1  0
 18 48  1  0
 19 49  1  0
 22 50  1  0
 22 51  1  0
 22 52  1  0
 25 53  1  0
 26 54  1  0
 27 55  1  0
 28 56  1  0
 28 57  1  0
 29 58  1  0
 29 59  1  0
 29 60  1  0
M  END
>  <Energy>  (411) 
185.23059808775884

>  <compound_id>  (411) 
4093

>  <target_id>  (411) 
1

>  <reference_id>  (411) 
195

>  <inspiration_ids>  (411) 
[142, 195]

>  <energy_score>  (411) 
-7.717965746219193

>  <distance_score>  (411) 
2.6599013005166596

>  <path>  (411) 
/opt/xchem-fragalysis-2/maxwin/BulkDock/SCRATCH/505735/C4093-P195/C4093-P195.minimised.mol

>  <scratch_subdir>  (411) 
/opt/xchem-fragalysis-2/maxwin/BulkDock/SCRATCH/505735/C4093-P195

>  <fragmenstein_runtime>  (411) 
68.48159837722778

>  <fragmenstein_outcome>  (411) 
too moved

>  <fragmenstein_mode>  (411) 
expansion

>  <fragmenstein_error>  (411) 


$$$$
C4094-P142
     RDKit          3D

 67 72  0  0  0  0  0  0  0  0999 V2000
    3.2265    1.3365   26.6097 C   0  0  0  0  0  0  0  0  0  0  0  0
    2.1674    2.0231   27.8521 S   0  0  0  0  0  0  0  0  0  0  0  0
    0.8156    2.0466   27.3279 O   0  0  0  0  0  0  0  0  0  0  0  0
    2.8041    3.2644   28.2728 O   0  0  0  0  0  0  0  0  0  0  0  0
    2.2776    0.8976   29.2401 C   0  0  0  0  0  0  0  0  0  0  0  0
    1.3371    1.3790   30.3361 C   0  0  0  0  0  0  0  0  0  0  0  0
    1.5547    2.6465   30.8660 N   0  0  0  0  0  0  0  0  0  0  0  0
    0.7382    2.8589   31.9672 C   0  0  0  0  0  0  0  0  0  0  0  0
    0.6836    3.8170   32.7111 O   0  0  0  0  0  0  0  0  0  0  0  0
   -0.0034    1.6886   32.0648 N   0  0  0  0  0  0  0  0  0  0  0  0
    0.3634    0.7802   31.0776 C   0  0  0  0  0  0  0  0  0  0  0  0
   -0.3169   -0.6103   31.1692 C   0  0  0  0  0  0  0  0  0  0  0  0
   -1.7081   -0.3260   31.5187 O   0  0  0  0  0  0  0  0  0  0  0  0
    0.3365   -1.2946   32.4265 C   0  0  0  0  0  0  0  0  0  0  0  0
   -0.2125   -2.7075   32.7927 C   0  0  0  0  0  0  0  0  0  0  0  0
    0.7855   -3.5166   33.5686 N   0  0  0  0  0  0  0  0  0  0  0  0
    0.5330   -4.8555   33.9300 C   0  0  0  0  0  0  0  0  0  0  0  0
   -0.6945   -5.4142   33.8904 C   0  0  0  0  0  0  0  0  0  0  0  0
   -0.9460   -6.7282   34.4442 C   0  0  0  0  0  0  0  0  0  0  0  0
    0.0444   -7.4652   34.9632 C   0  0  0  0  0  0  0  0  0  0  0  0
    1.3754   -7.0050   34.8436 C   0  0  0  0  0  0  0  0  0  0  0  0
    2.5336   -7.5874   35.0696 N   0  0  0  0  0  0  0  0  0  0  0  0
    3.5170   -6.6885   34.7442 N   0  0  0  0  0  0  0  0  0  0  0  0
    2.9354   -5.6005   34.2902 C   0  0  0  0  0  0  0  0  0  0  0  0
    1.5735   -5.7207   34.3456 N   0  0  0  0  0  0  0  0  0  0  0  0
    1.6311   -2.6294   34.3916 C   0  0  0  0  0  0  0  0  0  0  0  0
    2.4594   -1.7246   33.4680 C   0  0  0  0  0  0  0  0  0  0  0  0
    1.7748   -1.2978   32.2831 O   0  0  0  0  0  0  0  0  0  0  0  0
   -0.3854   -1.5781   29.9133 C   0  0  0  0  0  0  0  0  0  0  0  0
   -0.2911   -0.8028   28.5868 C   0  0  0  0  0  0  0  0  0  0  0  0
    1.0208   -0.8147   28.0265 O   0  0  0  0  0  0  0  0  0  0  0  0
    2.0916   -0.5744   28.9219 C   0  0  0  0  0  0  0  0  0  0  0  0
    3.2820   -1.3982   28.4208 C   0  0  0  0  0  0  0  0  0  0  0  0
    3.3188   -2.7979   29.0854 C   0  0  0  0  0  0  0  0  0  0  0  0
    2.2364   -3.8321   28.7151 C   0  0  0  0  0  0  0  0  0  0  0  0
    0.7516   -3.5165   28.9531 C   0  0  0  0  0  0  0  0  0  0  0  0
    0.5904   -2.6354   30.0454 O   0  0  0  0  0  0  0  0  0  0  0  0
    3.2426    2.0357   25.7714 H   0  0  0  0  0  0  0  0  0  0  0  0
    2.8383    0.3788   26.2742 H   0  0  0  0  0  0  0  0  0  0  0  0
    4.2275    1.2247   27.0289 H   0  0  0  0  0  0  0  0  0  0  0  0
    3.2961    1.0304   29.6316 H   0  0  0  0  0  0  0  0  0  0  0  0
    2.1953    3.3489   30.5087 H   0  0  0  0  0  0  0  0  0  0  0  0
   -0.6504    1.5064   32.8163 H   0  0  0  0  0  0  0  0  0  0  0  0
   -2.0479    0.2597   30.8137 H   0  0  0  0  0  0  0  0  0  0  0  0
    0.1138   -0.6591   33.2972 H   0  0  0  0  0  0  0  0  0  0  0  0
   -1.1217   -2.5693   33.3926 H   0  0  0  0  0  0  0  0  0  0  0  0
   -0.5120   -3.2883   31.9191 H   0  0  0  0  0  0  0  0  0  0  0  0
   -1.5400   -4.8549   33.5291 H   0  0  0  0  0  0  0  0  0  0  0  0
   -1.9637   -7.0885   34.5032 H   0  0  0  0  0  0  0  0  0  0  0  0
   -0.1642   -8.4158   35.4402 H   0  0  0  0  0  0  0  0  0  0  0  0
    3.4409   -4.7352   33.8923 H   0  0  0  0  0  0  0  0  0  0  0  0
    2.2898   -3.1601   35.0843 H   0  0  0  0  0  0  0  0  0  0  0  0
    0.9769   -2.0160   35.0254 H   0  0  0  0  0  0  0  0  0  0  0  0
    2.7940   -0.8360   34.0138 H   0  0  0  0  0  0  0  0  0  0  0  0
    3.3564   -2.2558   33.1325 H   0  0  0  0  0  0  0  0  0  0  0  0
   -1.3707   -2.0640   29.9334 H   0  0  0  0  0  0  0  0  0  0  0  0
   -0.9390   -1.2885   27.8489 H   0  0  0  0  0  0  0  0  0  0  0  0
   -0.6744    0.2193   28.6612 H   0  0  0  0  0  0  0  0  0  0  0  0
    1.9305   -1.0049   29.8994 H   0  0  0  0  0  0  0  0  0  0  0  0
    4.2188   -0.8915   28.6797 H   0  0  0  0  0  0  0  0  0  0  0  0
    3.2606   -1.5319   27.3349 H   0  0  0  0  0  0  0  0  0  0  0  0
    4.2868   -3.2477   28.8261 H   0  0  0  0  0  0  0  0  0  0  0  0
    3.3400   -2.6814   30.1766 H   0  0  0  0  0  0  0  0  0  0  0  0
    2.3676   -4.1334   27.6691 H   0  0  0  0  0  0  0  0  0  0  0  0
    2.4670   -4.7329   29.3011 H   0  0  0  0  0  0  0  0  0  0  0  0
    0.2193   -4.4415   29.1979 H   0  0  0  0  0  0  0  0  0  0  0  0
    0.2982   -3.1431   28.0383 H   0  0  0  0  0  0  0  0  0  0  0  0
  1  2  1  0
  2  3  2  0
  2  4  2  0
  2  5  1  0
  5  6  1  0
  6  7  1  0
  7  8  1  0
  8  9  2  0
  8 10  1  0
 10 11  1  0
 11 12  1  0
 12 13  1  0
 12 14  1  0
 14 15  1  0
 15 16  1  0
 16 17  1  0
 17 18  2  0
 18 19  1  0
 19 20  2  0
 20 21  1  0
 21 22  2  0
 22 23  1  0
 23 24  2  0
 24 25  1  0
 16 26  1  0
 26 27  1  0
 27 28  1  0
 12 29  1  0
 29 30  1  0
 30 31  1  0
 31 32  1  0
 32 33  1  0
 33 34  1  0
 34 35  1  0
 35 36  1  0
 36 37  1  0
 32  5  1  0
 11  6  2  0
 28 14  1  0
 37 29  1  0
 25 17  1  0
 25 21  1  0
  1 38  1  0
  1 39  1  0
  1 40  1  0
  5 41  1  0
  7 42  1  0
 10 43  1  0
 13 44  1  0
 14 45  1  0
 15 46  1  0
 15 47  1  0
 18 48  1  0
 19 49  1  0
 20 50  1  0
 24 51  1  0
 26 52  1  0
 26 53  1  0
 27 54  1  0
 27 55  1  0
 29 56  1  0
 30 57  1  0
 30 58  1  0
 32 59  1  0
 33 60  1  0
 33 61  1  0
 34 62  1  0
 34 63  1  0
 35 64  1  0
 35 65  1  0
 36 66  1  0
 36 67  1  0
M  END
>  <Energy>  (412) 
263.41465028805169

>  <compound_id>  (412) 
4094

>  <target_id>  (412) 
1

>  <reference_id>  (412) 
142

>  <inspiration_ids>  (412) 
[142, 196]

>  <energy_score>  (412) 
-81.05280279283056

>  <distance_score>  (412) 
3.839854669185284

>  <path>  (412) 
/opt/xchem-fragalysis-2/maxwin/BulkDock/SCRATCH/505735/C4094-P142/C4094-P142.minimised.mol

>  <scratch_subdir>  (412) 
/opt/xchem-fragalysis-2/maxwin/BulkDock/SCRATCH/505735/C4094-P142

>  <fragmenstein_runtime>  (412) 
22.6987624168396

>  <fragmenstein_outcome>  (412) 
too moved

>  <fragmenstein_mode>  (412) 
expansion

>  <fragmenstein_error>  (412) 


$$$$
C4094-P196
     RDKit          3D

 67 72  0  0  0  0  0  0  0  0999 V2000
   -0.1534   -2.7742   27.8763 C   0  0  0  0  0  0  0  0  0  0  0  0
   -0.6335   -2.3190   29.5970 S   0  0  0  0  0  0  0  0  0  0  0  0
   -1.6088   -1.2554   29.2533 O   0  0  0  0  0  0  0  0  0  0  0  0
   -1.4049   -3.5497   29.8757 O   0  0  0  0  0  0  0  0  0  0  0  0
    1.1203   -1.6189   31.2831 C   0  0  0  0  0  0  0  0  0  0  0  0
    0.9274   -0.3861   32.5748 C   0  0  0  0  0  0  0  0  0  0  0  0
    1.1702   -0.5830   33.9099 N   0  0  0  0  0  0  0  0  0  0  0  0
    0.9421    0.6279   34.5879 C   0  0  0  0  0  0  0  0  0  0  0  0
    1.0951    0.8457   35.7737 O   0  0  0  0  0  0  0  0  0  0  0  0
    0.5142    1.5231   33.5923 N   0  0  0  0  0  0  0  0  0  0  0  0
    0.5553    0.9130   32.3500 C   0  0  0  0  0  0  0  0  0  0  0  0
    0.3392    1.6772   30.9974 C   0  0  0  0  0  0  0  0  0  0  0  0
    1.3446    2.6286   31.4329 O   0  0  0  0  0  0  0  0  0  0  0  0
    0.2854    0.2273   30.4787 C   0  0  0  0  0  0  0  0  0  0  0  0
   -0.7310   -1.2885   31.5113 C   0  0  0  0  0  0  0  0  0  0  0  0
    0.1125   -3.1015   31.3800 N   0  0  0  0  0  0  0  0  0  0  0  0
   -0.1070   -4.1088   32.3690 C   0  0  0  0  0  0  0  0  0  0  0  0
   -0.3600   -3.8290   33.6669 C   0  0  0  0  0  0  0  0  0  0  0  0
   -0.5121   -4.8900   34.6527 C   0  0  0  0  0  0  0  0  0  0  0  0
   -0.4627   -6.1866   34.3058 C   0  0  0  0  0  0  0  0  0  0  0  0
   -0.2692   -6.5221   32.9441 C   0  0  0  0  0  0  0  0  0  0  0  0
   -0.2253   -7.6816   32.3259 N   0  0  0  0  0  0  0  0  0  0  0  0
   -0.0728   -7.4373   30.9860 N   0  0  0  0  0  0  0  0  0  0  0  0
   -0.0334   -6.1354   30.8251 C   0  0  0  0  0  0  0  0  0  0  0  0
   -0.1030   -5.4862   32.0275 N   0  0  0  0  0  0  0  0  0  0  0  0
    1.5844   -3.2355   30.0619 C   0  0  0  0  0  0  0  0  0  0  0  0
    2.3579   -1.7722   28.8929 C   0  0  0  0  0  0  0  0  0  0  0  0
    1.9765    0.1314   29.3368 O   0  0  0  0  0  0  0  0  0  0  0  0
    0.6702    1.9348   29.2777 C   0  0  0  0  0  0  0  0  0  0  0  0
    0.4762    0.5820   28.2036 C   0  0  0  0  0  0  0  0  0  0  0  0
    0.7727   -0.9405   29.1429 O   0  0  0  0  0  0  0  0  0  0  0  0
    2.0643   -0.9138   30.6560 C   0  0  0  0  0  0  0  0  0  0  0  0
    3.6783   -0.9864   30.7893 C   0  0  0  0  0  0  0  0  0  0  0  0
    4.4909    0.1346   30.0205 C   0  0  0  0  0  0  0  0  0  0  0  0
    3.9866    1.6154   30.0927 C   0  0  0  0  0  0  0  0  0  0  0  0
    3.1862    2.1756   28.8573 C   0  0  0  0  0  0  0  0  0  0  0  0
    1.8841    2.7631   29.1046 O   0  0  0  0  0  0  0  0  0  0  0  0
    0.6326   -3.5151   27.7940 H   0  0  0  0  0  0  0  0  0  0  0  0
    0.0372   -1.9020   27.2496 H   0  0  0  0  0  0  0  0  0  0  0  0
   -1.0352   -3.2290   27.4281 H   0  0  0  0  0  0  0  0  0  0  0  0
    1.7057   -2.3349   31.9285 H   0  0  0  0  0  0  0  0  0  0  0  0
    1.5110   -1.4165   34.3653 H   0  0  0  0  0  0  0  0  0  0  0  0
    0.4602    2.5236   33.7268 H   0  0  0  0  0  0  0  0  0  0  0  0
    1.6575    3.1444   30.6600 H   0  0  0  0  0  0  0  0  0  0  0  0
   -0.6054    0.4009   29.8474 H   0  0  0  0  0  0  0  0  0  0  0  0
   -0.9284   -1.1602   32.5932 H   0  0  0  0  0  0  0  0  0  0  0  0
   -1.8128   -1.3408   31.2729 H   0  0  0  0  0  0  0  0  0  0  0  0
   -0.4434   -2.8172   34.0386 H   0  0  0  0  0  0  0  0  0  0  0  0
   -0.6951   -4.5994   35.6833 H   0  0  0  0  0  0  0  0  0  0  0  0
   -0.5967   -6.9833   35.0304 H   0  0  0  0  0  0  0  0  0  0  0  0
   -0.0088   -5.6274   29.8784 H   0  0  0  0  0  0  0  0  0  0  0  0
    1.3614   -4.1104   29.4491 H   0  0  0  0  0  0  0  0  0  0  0  0
    2.4321   -3.5861   30.6779 H   0  0  0  0  0  0  0  0  0  0  0  0
    2.0268   -1.8299   27.8424 H   0  0  0  0  0  0  0  0  0  0  0  0
    3.4424   -1.8473   28.7691 H   0  0  0  0  0  0  0  0  0  0  0  0
   -0.1314    2.6201   28.9700 H   0  0  0  0  0  0  0  0  0  0  0  0
   -0.5527    0.4428   27.8607 H   0  0  0  0  0  0  0  0  0  0  0  0
    1.1954    0.5277   27.3782 H   0  0  0  0  0  0  0  0  0  0  0  0
    2.1572    0.1129   31.0789 H   0  0  0  0  0  0  0  0  0  0  0  0
    3.8941   -0.8365   31.8591 H   0  0  0  0  0  0  0  0  0  0  0  0
    4.1027   -1.9781   30.5913 H   0  0  0  0  0  0  0  0  0  0  0  0
    5.4982    0.1151   30.4589 H   0  0  0  0  0  0  0  0  0  0  0  0
    4.6341   -0.1387   28.9697 H   0  0  0  0  0  0  0  0  0  0  0  0
    3.4930    1.8050   31.0452 H   0  0  0  0  0  0  0  0  0  0  0  0
    4.9031    2.2222   30.1339 H   0  0  0  0  0  0  0  0  0  0  0  0
    3.1628    1.4965   27.9985 H   0  0  0  0  0  0  0  0  0  0  0  0
    3.7755    3.0272   28.4926 H   0  0  0  0  0  0  0  0  0  0  0  0
  1  2  1  0
  2  3  2  0
  2  4  2  0
  2  5  1  0
  5  6  1  0
  6  7  1  0
  7  8  1  0
  8  9  2  0
  8 10  1  0
 10 11  1  0
 11 12  1  0
 12 13  1  0
 12 14  1  0
 14 15  1  0
 15 16  1  0
 16 17  1  0
 17 18  2  0
 18 19  1  0
 19 20  2  0
 20 21  1  0
 21 22  2  0
 22 23  1  0
 23 24  2  0
 24 25  1  0
 16 26  1  0
 26 27  1  0
 27 28  1  0
 12 29  1  0
 29 30  1  0
 30 31  1  0
 31 32  1  0
 32 33  1  0
 33 34  1  0
 34 35  1  0
 35 36  1  0
 36 37  1  0
 32  5  1  0
 11  6  2  0
 28 14  1  0
 37 29  1  0
 25 17  1  0
 25 21  1  0
  1 38  1  0
  1 39  1  0
  1 40  1  0
  5 41  1  0
  7 42  1  0
 10 43  1  0
 13 44  1  0
 14 45  1  0
 15 46  1  0
 15 47  1  0
 18 48  1  0
 19 49  1  0
 20 50  1  0
 24 51  1  0
 26 52  1  0
 26 53  1  0
 27 54  1  0
 27 55  1  0
 29 56  1  0
 30 57  1  0
 30 58  1  0
 32 59  1  0
 33 60  1  0
 33 61  1  0
 34 62  1  0
 34 63  1  0
 35 64  1  0
 35 65  1  0
 36 66  1  0
 36 67  1  0
M  END
>  <Energy>  (413) 
2127.7607186702321

>  <compound_id>  (413) 
4094

>  <target_id>  (413) 
1

>  <reference_id>  (413) 
196

>  <inspiration_ids>  (413) 
[142, 196]

>  <energy_score>  (413) 
1783.2932655893362

>  <distance_score>  (413) 
3.6686783005842094

>  <path>  (413) 
/opt/xchem-fragalysis-2/maxwin/BulkDock/SCRATCH/505735/C4094-P196/C4094-P196.minimised.mol

>  <scratch_subdir>  (413) 
/opt/xchem-fragalysis-2/maxwin/BulkDock/SCRATCH/505735/C4094-P196

>  <fragmenstein_runtime>  (413) 
22.371381044387817

>  <fragmenstein_outcome>  (413) 
too moved

>  <fragmenstein_mode>  (413) 
expansion

>  <fragmenstein_error>  (413) 


$$$$
C4095-P142
     RDKit          3D

 63 67  0  0  0  0  0  0  0  0999 V2000
    0.5110   -5.7300   35.5751 C   0  0  0  0  0  0  0  0  0  0  0  0
   -0.3676   -5.5257   34.3244 C   0  0  0  0  0  0  0  0  0  0  0  0
   -0.3011   -6.8074   33.4378 C   0  0  0  0  0  0  0  0  0  0  0  0
   -1.3789   -6.8335   32.5180 O   0  0  0  0  0  0  0  0  0  0  0  0
   -1.6626   -8.0951   31.9583 C   0  0  0  0  0  0  0  0  0  0  0  0
   -1.0111   -8.2846   30.7122 O   0  0  0  0  0  0  0  0  0  0  0  0
    0.9717   -6.9025   32.7357 N   0  0  0  0  0  0  0  0  0  0  0  0
    1.2496   -5.7156   31.9383 C   0  0  0  0  0  0  0  0  0  0  0  0
    1.3445   -4.4941   32.8245 C   0  0  0  0  0  0  0  0  0  0  0  0
   -0.0103   -4.2156   33.5199 C   0  0  0  0  0  0  0  0  0  0  0  0
   -1.1059   -3.8874   32.4797 C   0  0  0  0  0  0  0  0  0  0  0  0
   -0.7405   -2.7426   31.5539 C   0  0  0  0  0  0  0  0  0  0  0  0
    0.0569   -1.6322   32.2466 C   0  0  0  0  0  0  0  0  0  0  0  0
   -0.1071   -0.3049   31.4896 C   0  0  0  0  0  0  0  0  0  0  0  0
    0.2929   -0.4557   29.9859 C   0  0  0  0  0  0  0  0  0  0  0  0
    1.7570   -0.2416   29.8201 N   0  0  0  0  0  0  0  0  0  0  0  0
    2.6818   -1.2738   30.1099 C   0  0  0  0  0  0  0  0  0  0  0  0
    3.6199   -1.1976   31.0849 C   0  0  0  0  0  0  0  0  0  0  0  0
    4.5527   -2.2850   31.3211 C   0  0  0  0  0  0  0  0  0  0  0  0
    4.5218   -3.4097   30.5880 C   0  0  0  0  0  0  0  0  0  0  0  0
    3.5494   -3.5401   29.5658 C   0  0  0  0  0  0  0  0  0  0  0  0
    3.2816   -4.5172   28.7239 N   0  0  0  0  0  0  0  0  0  0  0  0
    2.2469   -4.1002   27.9211 N   0  0  0  0  0  0  0  0  0  0  0  0
    1.9064   -2.8884   28.3069 C   0  0  0  0  0  0  0  0  0  0  0  0
    2.6761   -2.4758   29.3590 N   0  0  0  0  0  0  0  0  0  0  0  0
    2.0685    1.1713   30.1638 C   0  0  0  0  0  0  0  0  0  0  0  0
    1.1495    1.7157   31.2762 C   0  0  0  0  0  0  0  0  0  0  0  0
    0.6900    0.6940   32.1652 O   0  0  0  0  0  0  0  0  0  0  0  0
   -0.2497   -1.6065   33.7480 C   0  0  0  0  0  0  0  0  0  0  0  0
    0.0915   -2.9574   34.4377 C   0  0  0  0  0  0  0  0  0  0  0  0
    0.1884   -6.6240   36.1214 H   0  0  0  0  0  0  0  0  0  0  0  0
    1.5683   -5.8621   35.3292 H   0  0  0  0  0  0  0  0  0  0  0  0
    0.4254   -4.8900   36.2701 H   0  0  0  0  0  0  0  0  0  0  0  0
   -1.3916   -5.4273   34.6887 H   0  0  0  0  0  0  0  0  0  0  0  0
   -0.4009   -7.6710   34.1064 H   0  0  0  0  0  0  0  0  0  0  0  0
   -2.7298   -8.1338   31.7580 H   0  0  0  0  0  0  0  0  0  0  0  0
   -1.4191   -8.9009   32.6397 H   0  0  0  0  0  0  0  0  0  0  0  0
   -0.4216   -9.0563   30.7972 H   0  0  0  0  0  0  0  0  0  0  0  0
    0.8720   -7.6598   32.0655 H   0  0  0  0  0  0  0  0  0  0  0  0
    0.5172   -5.5941   31.1331 H   0  0  0  0  0  0  0  0  0  0  0  0
    2.2038   -5.8345   31.4332 H   0  0  0  0  0  0  0  0  0  0  0  0
    2.1390   -4.6336   33.5686 H   0  0  0  0  0  0  0  0  0  0  0  0
    1.6968   -3.6746   32.2044 H   0  0  0  0  0  0  0  0  0  0  0  0
   -1.3772   -4.7254   31.8426 H   0  0  0  0  0  0  0  0  0  0  0  0
   -2.0161   -3.5949   33.0065 H   0  0  0  0  0  0  0  0  0  0  0  0
   -1.6690   -2.3473   31.1219 H   0  0  0  0  0  0  0  0  0  0  0  0
   -0.1591   -3.1476   30.7179 H   0  0  0  0  0  0  0  0  0  0  0  0
    1.1226   -1.8509   32.1993 H   0  0  0  0  0  0  0  0  0  0  0  0
   -1.1548    0.0153   31.5469 H   0  0  0  0  0  0  0  0  0  0  0  0
   -0.0466   -1.3887   29.5369 H   0  0  0  0  0  0  0  0  0  0  0  0
   -0.2233    0.3247   29.4093 H   0  0  0  0  0  0  0  0  0  0  0  0
    3.6958   -0.3446   31.7500 H   0  0  0  0  0  0  0  0  0  0  0  0
    5.2845   -2.1584   32.1136 H   0  0  0  0  0  0  0  0  0  0  0  0
    5.2229   -4.2181   30.7568 H   0  0  0  0  0  0  0  0  0  0  0  0
    1.1343   -2.2706   27.8762 H   0  0  0  0  0  0  0  0  0  0  0  0
    1.9422    1.7885   29.2656 H   0  0  0  0  0  0  0  0  0  0  0  0
    3.1175    1.3001   30.4509 H   0  0  0  0  0  0  0  0  0  0  0  0
    1.6880    2.4651   31.8655 H   0  0  0  0  0  0  0  0  0  0  0  0
    0.2824    2.2237   30.8405 H   0  0  0  0  0  0  0  0  0  0  0  0
   -1.3140   -1.3831   33.8973 H   0  0  0  0  0  0  0  0  0  0  0  0
    0.3053   -0.8067   34.2516 H   0  0  0  0  0  0  0  0  0  0  0  0
    1.1012   -2.8904   34.8622 H   0  0  0  0  0  0  0  0  0  0  0  0
   -0.5932   -3.0574   35.2896 H   0  0  0  0  0  0  0  0  0  0  0  0
  1  2  1  0
  2  3  1  0
  3  4  1  0
  4  5  1  0
  5  6  1  0
  3  7  1  0
  7  8  1  0
  8  9  1  0
  9 10  1  0
 10 11  1  0
 11 12  1  0
 12 13  1  0
 13 14  1  0
 14 15  1  0
 15 16  1  0
 16 17  1  0
 17 18  2  0
 18 19  1  0
 19 20  2  0
 20 21  1  0
 21 22  2  0
 22 23  1  0
 23 24  2  0
 24 25  1  0
 16 26  1  0
 26 27  1  0
 27 28  1  0
 13 29  1  0
 29 30  1  0
 10  2  1  0
 28 14  1  0
 30 10  1  0
 25 17  1  0
 25 21  1  0
  1 31  1  0
  1 32  1  0
  1 33  1  0
  2 34  1  0
  3 35  1  0
  5 36  1  0
  5 37  1  0
  6 38  1  0
  7 39  1  0
  8 40  1  0
  8 41  1  0
  9 42  1  0
  9 43  1  0
 11 44  1  0
 11 45  1  0
 12 46  1  0
 12 47  1  0
 13 48  1  0
 14 49  1  0
 15 50  1  0
 15 51  1  0
 18 52  1  0
 19 53  1  0
 20 54  1  0
 24 55  1  0
 26 56  1  0
 26 57  1  0
 27 58  1  0
 27 59  1  0
 29 60  1  0
 29 61  1  0
 30 62  1  0
 30 63  1  0
M  END
>  <Energy>  (414) 
124.72061663582045

>  <compound_id>  (414) 
4095

>  <target_id>  (414) 
1

>  <reference_id>  (414) 
142

>  <inspiration_ids>  (414) 
[142, 197]

>  <energy_score>  (414) 
-52.65887749427591

>  <distance_score>  (414) 
3.5307093110019907

>  <path>  (414) 
/opt/xchem-fragalysis-2/maxwin/BulkDock/SCRATCH/505735/C4095-P142/C4095-P142.minimised.mol

>  <scratch_subdir>  (414) 
/opt/xchem-fragalysis-2/maxwin/BulkDock/SCRATCH/505735/C4095-P142

>  <fragmenstein_runtime>  (414) 
21.149440050125122

>  <fragmenstein_outcome>  (414) 
too moved

>  <fragmenstein_mode>  (414) 
expansion

>  <fragmenstein_error>  (414) 


$$$$
C4095-P197
     RDKit          3D

 63 67  0  0  0  0  0  0  0  0999 V2000
   -0.8423   -7.5472   34.2829 C   0  0  0  0  0  0  0  0  0  0  0  0
   -0.8349   -6.6426   33.0594 C   0  0  0  0  0  0  0  0  0  0  0  0
   -0.4474   -7.3682   31.7774 C   0  0  0  0  0  0  0  0  0  0  0  0
   -1.2148   -8.4930   31.4169 O   0  0  0  0  0  0  0  0  0  0  0  0
   -0.5294   -9.1201   30.3366 C   0  0  0  0  0  0  0  0  0  0  0  0
   -0.7807   -8.5358   29.0828 O   0  0  0  0  0  0  0  0  0  0  0  0
   -0.5549   -6.4428   30.6814 N   0  0  0  0  0  0  0  0  0  0  0  0
    0.5951   -5.6160   30.6590 C   0  0  0  0  0  0  0  0  0  0  0  0
    0.3404   -4.6974   31.8044 C   0  0  0  0  0  0  0  0  0  0  0  0
    0.0107   -5.3346   33.2420 C   0  0  0  0  0  0  0  0  0  0  0  0
   -0.8929   -4.3889   34.1175 C   0  0  0  0  0  0  0  0  0  0  0  0
   -0.2086   -3.2046   34.8210 C   0  0  0  0  0  0  0  0  0  0  0  0
    0.9762   -2.8904   33.9529 C   0  0  0  0  0  0  0  0  0  0  0  0
    1.4002   -1.4630   33.7168 C   0  0  0  0  0  0  0  0  0  0  0  0
    2.2799   -1.3457   32.4501 C   0  0  0  0  0  0  0  0  0  0  0  0
    1.5217   -1.5785   31.1669 N   0  0  0  0  0  0  0  0  0  0  0  0
    2.2388   -1.8360   29.9730 C   0  0  0  0  0  0  0  0  0  0  0  0
    3.5782   -1.6636   29.8826 C   0  0  0  0  0  0  0  0  0  0  0  0
    4.2771   -1.8359   28.6268 C   0  0  0  0  0  0  0  0  0  0  0  0
    3.6376   -2.1762   27.4985 C   0  0  0  0  0  0  0  0  0  0  0  0
    2.2440   -2.4045   27.5460 C   0  0  0  0  0  0  0  0  0  0  0  0
    1.3945   -2.7611   26.6105 N   0  0  0  0  0  0  0  0  0  0  0  0
    0.1631   -2.8752   27.1976 N   0  0  0  0  0  0  0  0  0  0  0  0
    0.2948   -2.6002   28.4768 C   0  0  0  0  0  0  0  0  0  0  0  0
    1.5879   -2.2451   28.7674 N   0  0  0  0  0  0  0  0  0  0  0  0
    0.3760   -0.6283   31.1091 C   0  0  0  0  0  0  0  0  0  0  0  0
   -0.4987   -0.7762   32.3441 C   0  0  0  0  0  0  0  0  0  0  0  0
    0.2500   -0.6014   33.5616 O   0  0  0  0  0  0  0  0  0  0  0  0
    2.0195   -4.0216   34.1387 C   0  0  0  0  0  0  0  0  0  0  0  0
    1.3455   -5.4365   34.0222 C   0  0  0  0  0  0  0  0  0  0  0  0
   -1.5456   -8.3617   34.1173 H   0  0  0  0  0  0  0  0  0  0  0  0
    0.1491   -7.9513   34.4911 H   0  0  0  0  0  0  0  0  0  0  0  0
   -1.1788   -7.0294   35.1849 H   0  0  0  0  0  0  0  0  0  0  0  0
   -1.8714   -6.3440   32.9268 H   0  0  0  0  0  0  0  0  0  0  0  0
    0.5831   -7.6921   31.9451 H   0  0  0  0  0  0  0  0  0  0  0  0
   -0.8185  -10.1676   30.3258 H   0  0  0  0  0  0  0  0  0  0  0  0
    0.5253   -8.9160   30.3883 H   0  0  0  0  0  0  0  0  0  0  0  0
   -0.4505   -9.1949   28.4441 H   0  0  0  0  0  0  0  0  0  0  0  0
   -0.6648   -6.9405   29.7939 H   0  0  0  0  0  0  0  0  0  0  0  0
    1.5432   -6.1523   30.7522 H   0  0  0  0  0  0  0  0  0  0  0  0
    0.6441   -5.0553   29.7231 H   0  0  0  0  0  0  0  0  0  0  0  0
    1.2684   -4.1251   31.7995 H   0  0  0  0  0  0  0  0  0  0  0  0
   -0.4837   -4.0268   31.5195 H   0  0  0  0  0  0  0  0  0  0  0  0
   -1.6538   -3.9677   33.4527 H   0  0  0  0  0  0  0  0  0  0  0  0
   -1.3779   -4.9525   34.9170 H   0  0  0  0  0  0  0  0  0  0  0  0
    0.1045   -3.4763   35.8360 H   0  0  0  0  0  0  0  0  0  0  0  0
   -0.9171   -2.3762   34.9203 H   0  0  0  0  0  0  0  0  0  0  0  0
    0.5291   -2.9872   32.9892 H   0  0  0  0  0  0  0  0  0  0  0  0
    1.9574   -1.1001   34.5870 H   0  0  0  0  0  0  0  0  0  0  0  0
    2.6929   -0.3283   32.4129 H   0  0  0  0  0  0  0  0  0  0  0  0
    3.1262   -2.0345   32.5288 H   0  0  0  0  0  0  0  0  0  0  0  0
    4.1889   -1.3248   30.7106 H   0  0  0  0  0  0  0  0  0  0  0  0
    5.3473   -1.6500   28.6133 H   0  0  0  0  0  0  0  0  0  0  0  0
    4.1536   -2.2800   26.5505 H   0  0  0  0  0  0  0  0  0  0  0  0
   -0.4940   -2.6634   29.2099 H   0  0  0  0  0  0  0  0  0  0  0  0
    0.7800    0.3917   31.0673 H   0  0  0  0  0  0  0  0  0  0  0  0
   -0.2436   -0.7592   30.2210 H   0  0  0  0  0  0  0  0  0  0  0  0
   -1.2713    0.0003   32.3356 H   0  0  0  0  0  0  0  0  0  0  0  0
   -1.0250   -1.7348   32.3576 H   0  0  0  0  0  0  0  0  0  0  0  0
    2.5109   -3.9318   35.1146 H   0  0  0  0  0  0  0  0  0  0  0  0
    2.8135   -3.9574   33.3885 H   0  0  0  0  0  0  0  0  0  0  0  0
    2.0371   -6.1319   33.5327 H   0  0  0  0  0  0  0  0  0  0  0  0
    1.1724   -5.8203   35.0350 H   0  0  0  0  0  0  0  0  0  0  0  0
  1  2  1  0
  2  3  1  0
  3  4  1  0
  4  5  1  0
  5  6  1  0
  3  7  1  0
  7  8  1  0
  8  9  1  0
  9 10  1  0
 10 11  1  0
 11 12  1  0
 12 13  1  0
 13 14  1  0
 14 15  1  0
 15 16  1  0
 16 17  1  0
 17 18  2  0
 18 19  1  0
 19 20  2  0
 20 21  1  0
 21 22  2  0
 22 23  1  0
 23 24  2  0
 24 25  1  0
 16 26  1  0
 26 27  1  0
 27 28  1  0
 13 29  1  0
 29 30  1  0
 10  2  1  0
 28 14  1  0
 30 10  1  0
 25 17  1  0
 25 21  1  0
  1 31  1  0
  1 32  1  0
  1 33  1  0
  2 34  1  0
  3 35  1  0
  5 36  1  0
  5 37  1  0
  6 38  1  0
  7 39  1  0
  8 40  1  0
  8 41  1  0
  9 42  1  0
  9 43  1  0
 11 44  1  0
 11 45  1  0
 12 46  1  0
 12 47  1  0
 13 48  1  0
 14 49  1  0
 15 50  1  0
 15 51  1  0
 18 52  1  0
 19 53  1  0
 20 54  1  0
 24 55  1  0
 26 56  1  0
 26 57  1  0
 27 58  1  0
 27 59  1  0
 29 60  1  0
 29 61  1  0
 30 62  1  0
 30 63  1  0
M  END
>  <Energy>  (415) 
166.68734191359871

>  <compound_id>  (415) 
4095

>  <target_id>  (415) 
1

>  <reference_id>  (415) 
197

>  <inspiration_ids>  (415) 
[142, 197]

>  <energy_score>  (415) 
-37.50636157711122

>  <distance_score>  (415) 
2.6861172498756605

>  <path>  (415) 
/opt/xchem-fragalysis-2/maxwin/BulkDock/SCRATCH/505735/C4095-P197/C4095-P197.minimised.mol

>  <scratch_subdir>  (415) 
/opt/xchem-fragalysis-2/maxwin/BulkDock/SCRATCH/505735/C4095-P197

>  <fragmenstein_runtime>  (415) 
15.077874183654785

>  <fragmenstein_outcome>  (415) 
too moved

>  <fragmenstein_mode>  (415) 
expansion

>  <fragmenstein_error>  (415) 


$$$$
C4096-P142
     RDKit          3D

 51 54  0  0  0  0  0  0  0  0999 V2000
   -3.5008    2.0921   26.1999 C   0  0  0  0  0  0  0  0  0  0  0  0
   -1.9361    2.4113   26.9144 S   0  0  0  0  0  0  0  0  0  0  0  0
   -2.1429    3.5113   27.8246 O   0  0  0  0  0  0  0  0  0  0  0  0
   -0.9492    2.5137   25.8593 O   0  0  0  0  0  0  0  0  0  0  0  0
   -1.4040    1.0781   27.9275 C   0  0  0  0  0  0  0  0  0  0  0  0
   -0.5821    1.3618   29.0197 C   0  0  0  0  0  0  0  0  0  0  0  0
   -0.0252    0.3319   29.8000 C   0  0  0  0  0  0  0  0  0  0  0  0
    0.8785    0.7420   30.9414 C   0  0  0  0  0  0  0  0  0  0  0  0
    2.5224    1.2497   30.3911 S   0  0  0  0  0  0  0  0  0  0  0  0
    2.8192    0.3938   28.9907 N   0  0  0  0  0  0  0  0  0  0  0  0
    3.4748    0.7791   31.3749 O   0  0  0  0  0  0  0  0  0  0  0  0
    2.4643    2.6402   30.0034 O   0  0  0  0  0  0  0  0  0  0  0  0
   -0.2993   -1.0133   29.4498 C   0  0  0  0  0  0  0  0  0  0  0  0
    0.4088   -2.2172   30.0438 C   0  0  0  0  0  0  0  0  0  0  0  0
   -0.1920   -2.7190   31.3784 C   0  0  0  0  0  0  0  0  0  0  0  0
    0.5665   -3.8969   31.8510 N   0  0  0  0  0  0  0  0  0  0  0  0
   -0.0458   -4.9985   32.4437 C   0  0  0  0  0  0  0  0  0  0  0  0
   -0.4122   -5.0417   33.7383 C   0  0  0  0  0  0  0  0  0  0  0  0
   -0.9828   -6.2573   34.3045 C   0  0  0  0  0  0  0  0  0  0  0  0
   -1.2240   -7.3407   33.5528 C   0  0  0  0  0  0  0  0  0  0  0  0
   -0.9055   -7.3045   32.1794 C   0  0  0  0  0  0  0  0  0  0  0  0
   -1.0953   -8.1610   31.2011 N   0  0  0  0  0  0  0  0  0  0  0  0
   -0.5687   -7.6147   30.0630 N   0  0  0  0  0  0  0  0  0  0  0  0
   -0.0872   -6.4318   30.3733 C   0  0  0  0  0  0  0  0  0  0  0  0
   -0.2989   -6.1582   31.6915 N   0  0  0  0  0  0  0  0  0  0  0  0
    2.0108   -3.8982   31.5429 C   0  0  0  0  0  0  0  0  0  0  0  0
    2.5017   -2.4876   31.2168 C   0  0  0  0  0  0  0  0  0  0  0  0
    1.8189   -1.9117   30.0929 O   0  0  0  0  0  0  0  0  0  0  0  0
   -1.1913   -1.2654   28.3917 C   0  0  0  0  0  0  0  0  0  0  0  0
   -1.7135   -0.2258   27.6317 C   0  0  0  0  0  0  0  0  0  0  0  0
   -2.4851   -0.5218   26.5900 F   0  0  0  0  0  0  0  0  0  0  0  0
   -3.4703    1.1481   25.6780 H   0  0  0  0  0  0  0  0  0  0  0  0
   -4.2628    2.0850   26.9711 H   0  0  0  0  0  0  0  0  0  0  0  0
   -3.7191    2.8978   25.4949 H   0  0  0  0  0  0  0  0  0  0  0  0
   -0.3321    2.4056   29.2318 H   0  0  0  0  0  0  0  0  0  0  0  0
    0.4465    1.5951   31.4775 H   0  0  0  0  0  0  0  0  0  0  0  0
    0.9970   -0.0532   31.6765 H   0  0  0  0  0  0  0  0  0  0  0  0
    2.4323    0.8407   28.1584 H   0  0  0  0  0  0  0  0  0  0  0  0
    2.6055   -0.6050   29.0802 H   0  0  0  0  0  0  0  0  0  0  0  0
    0.3406   -3.0452   29.3244 H   0  0  0  0  0  0  0  0  0  0  0  0
   -0.1457   -1.9462   32.1532 H   0  0  0  0  0  0  0  0  0  0  0  0
   -1.2491   -2.9767   31.2358 H   0  0  0  0  0  0  0  0  0  0  0  0
   -0.2688   -4.1955   34.4020 H   0  0  0  0  0  0  0  0  0  0  0  0
   -1.2396   -6.2530   35.3618 H   0  0  0  0  0  0  0  0  0  0  0  0
   -1.6808   -8.2245   33.9765 H   0  0  0  0  0  0  0  0  0  0  0  0
    0.3853   -5.7332   29.7026 H   0  0  0  0  0  0  0  0  0  0  0  0
    2.5741   -4.2942   32.3955 H   0  0  0  0  0  0  0  0  0  0  0  0
    2.1920   -4.5492   30.6809 H   0  0  0  0  0  0  0  0  0  0  0  0
    2.3731   -1.8281   32.0817 H   0  0  0  0  0  0  0  0  0  0  0  0
    3.5695   -2.5050   30.9768 H   0  0  0  0  0  0  0  0  0  0  0  0
   -1.4349   -2.2807   28.0844 H   0  0  0  0  0  0  0  0  0  0  0  0
  1  2  1  0
  2  3  2  0
  2  4  2  0
  2  5  1  0
  5  6  2  0
  6  7  1  0
  7  8  1  0
  8  9  1  0
  9 10  1  0
  9 11  2  0
  9 12  2  0
  7 13  2  0
 13 14  1  0
 14 15  1  0
 15 16  1  0
 16 17  1  0
 17 18  2  0
 18 19  1  0
 19 20  2  0
 20 21  1  0
 21 22  2  0
 22 23  1  0
 23 24  2  0
 24 25  1  0
 16 26  1  0
 26 27  1  0
 27 28  1  0
 13 29  1  0
 29 30  2  0
 30 31  1  0
 30  5  1  0
 28 14  1  0
 25 17  1  0
 25 21  1  0
  1 32  1  0
  1 33  1  0
  1 34  1  0
  6 35  1  0
  8 36  1  0
  8 37  1  0
 10 38  1  0
 10 39  1  0
 14 40  1  0
 15 41  1  0
 15 42  1  0
 18 43  1  0
 19 44  1  0
 20 45  1  0
 24 46  1  0
 26 47  1  0
 26 48  1  0
 27 49  1  0
 27 50  1  0
 29 51  1  0
M  END
>  <Energy>  (416) 
120.13329697025202

>  <compound_id>  (416) 
4096

>  <target_id>  (416) 
1

>  <reference_id>  (416) 
142

>  <inspiration_ids>  (416) 
[142, 198]

>  <energy_score>  (416) 
-80.00554126919991

>  <distance_score>  (416) 
1.2881284796592563

>  <path>  (416) 
/opt/xchem-fragalysis-2/maxwin/BulkDock/SCRATCH/505735/C4096-P142/C4096-P142.minimised.mol

>  <scratch_subdir>  (416) 
/opt/xchem-fragalysis-2/maxwin/BulkDock/SCRATCH/505735/C4096-P142

>  <fragmenstein_runtime>  (416) 
16.837970733642578

>  <fragmenstein_outcome>  (416) 
too moved

>  <fragmenstein_mode>  (416) 
expansion

>  <fragmenstein_error>  (416) 


$$$$
C4096-P198
     RDKit          3D

 51 54  0  0  0  0  0  0  0  0999 V2000
   -1.3646    2.8822   25.6025 C   0  0  0  0  0  0  0  0  0  0  0  0
   -2.2840    2.4716   27.0435 S   0  0  0  0  0  0  0  0  0  0  0  0
   -3.5814    1.9793   26.6329 O   0  0  0  0  0  0  0  0  0  0  0  0
   -2.1323    3.6206   27.9120 O   0  0  0  0  0  0  0  0  0  0  0  0
   -1.4467    1.1581   27.8677 C   0  0  0  0  0  0  0  0  0  0  0  0
   -0.6162    1.4345   28.9536 C   0  0  0  0  0  0  0  0  0  0  0  0
   -0.0067    0.3960   29.6859 C   0  0  0  0  0  0  0  0  0  0  0  0
    0.9281    0.8024   30.8016 C   0  0  0  0  0  0  0  0  0  0  0  0
    2.5597    1.2808   30.1860 S   0  0  0  0  0  0  0  0  0  0  0  0
    2.7033    0.5901   28.6748 N   0  0  0  0  0  0  0  0  0  0  0  0
    3.5684    0.6441   31.0061 O   0  0  0  0  0  0  0  0  0  0  0  0
    2.5800    2.7076   29.9556 O   0  0  0  0  0  0  0  0  0  0  0  0
   -0.2572   -0.9480   29.3151 C   0  0  0  0  0  0  0  0  0  0  0  0
    0.4651   -2.1541   29.8906 C   0  0  0  0  0  0  0  0  0  0  0  0
   -0.1612   -2.6978   31.1999 C   0  0  0  0  0  0  0  0  0  0  0  0
    0.5798   -3.9029   31.6358 N   0  0  0  0  0  0  0  0  0  0  0  0
   -0.0241   -4.9737   32.2875 C   0  0  0  0  0  0  0  0  0  0  0  0
   -0.3976   -4.9506   33.5806 C   0  0  0  0  0  0  0  0  0  0  0  0
   -0.9502   -6.1429   34.2110 C   0  0  0  0  0  0  0  0  0  0  0  0
   -1.1841   -7.2654   33.5162 C   0  0  0  0  0  0  0  0  0  0  0  0
   -0.8705   -7.2940   32.1408 C   0  0  0  0  0  0  0  0  0  0  0  0
   -1.0677   -8.1962   31.2067 N   0  0  0  0  0  0  0  0  0  0  0  0
   -0.5377   -7.7101   30.0422 N   0  0  0  0  0  0  0  0  0  0  0  0
   -0.0390   -6.5202   30.2956 C   0  0  0  0  0  0  0  0  0  0  0  0
   -0.2628   -6.1742   31.5956 N   0  0  0  0  0  0  0  0  0  0  0  0
    2.0308   -3.8935   31.3602 C   0  0  0  0  0  0  0  0  0  0  0  0
    2.5289   -2.4710   31.1002 C   0  0  0  0  0  0  0  0  0  0  0  0
    1.8732   -1.8499   29.9870 O   0  0  0  0  0  0  0  0  0  0  0  0
   -1.1632   -1.1945   28.2672 C   0  0  0  0  0  0  0  0  0  0  0  0
   -1.7227   -0.1492   27.5404 C   0  0  0  0  0  0  0  0  0  0  0  0
   -2.5018   -0.4352   26.4985 F   0  0  0  0  0  0  0  0  0  0  0  0
   -1.6859    2.2572   24.7761 H   0  0  0  0  0  0  0  0  0  0  0  0
   -1.5861    3.9221   25.3470 H   0  0  0  0  0  0  0  0  0  0  0  0
   -0.2973    2.7838   25.8056 H   0  0  0  0  0  0  0  0  0  0  0  0
   -0.4198    2.4745   29.2231 H   0  0  0  0  0  0  0  0  0  0  0  0
    0.5250    1.6662   31.3427 H   0  0  0  0  0  0  0  0  0  0  0  0
    1.0573    0.0087   31.5375 H   0  0  0  0  0  0  0  0  0  0  0  0
    3.0620   -0.3648   28.7325 H   0  0  0  0  0  0  0  0  0  0  0  0
    3.1931    1.2035   28.0243 H   0  0  0  0  0  0  0  0  0  0  0  0
    0.4188   -2.9627   29.1474 H   0  0  0  0  0  0  0  0  0  0  0  0
   -0.1172   -1.9516   32.0011 H   0  0  0  0  0  0  0  0  0  0  0  0
   -1.2173   -2.9438   31.0331 H   0  0  0  0  0  0  0  0  0  0  0  0
   -0.2624   -4.0674   34.1966 H   0  0  0  0  0  0  0  0  0  0  0  0
   -1.1868   -6.0811   35.2693 H   0  0  0  0  0  0  0  0  0  0  0  0
   -1.6209   -8.1387   33.9789 H   0  0  0  0  0  0  0  0  0  0  0  0
    0.4509   -5.8639   29.5951 H   0  0  0  0  0  0  0  0  0  0  0  0
    2.5781   -4.3229   32.2071 H   0  0  0  0  0  0  0  0  0  0  0  0
    2.2265   -4.5120   30.4773 H   0  0  0  0  0  0  0  0  0  0  0  0
    2.3815   -1.8451   31.9873 H   0  0  0  0  0  0  0  0  0  0  0  0
    3.6019   -2.4813   30.8841 H   0  0  0  0  0  0  0  0  0  0  0  0
   -1.4026   -2.2074   27.9506 H   0  0  0  0  0  0  0  0  0  0  0  0
  1  2  1  0
  2  3  2  0
  2  4  2  0
  2  5  1  0
  5  6  2  0
  6  7  1  0
  7  8  1  0
  8  9  1  0
  9 10  1  0
  9 11  2  0
  9 12  2  0
  7 13  2  0
 13 14  1  0
 14 15  1  0
 15 16  1  0
 16 17  1  0
 17 18  2  0
 18 19  1  0
 19 20  2  0
 20 21  1  0
 21 22  2  0
 22 23  1  0
 23 24  2  0
 24 25  1  0
 16 26  1  0
 26 27  1  0
 27 28  1  0
 13 29  1  0
 29 30  2  0
 30 31  1  0
 30  5  1  0
 28 14  1  0
 25 17  1  0
 25 21  1  0
  1 32  1  0
  1 33  1  0
  1 34  1  0
  6 35  1  0
  8 36  1  0
  8 37  1  0
 10 38  1  0
 10 39  1  0
 14 40  1  0
 15 41  1  0
 15 42  1  0
 18 43  1  0
 19 44  1  0
 20 45  1  0
 24 46  1  0
 26 47  1  0
 26 48  1  0
 27 49  1  0
 27 50  1  0
 29 51  1  0
M  END
>  <Energy>  (417) 
121.8836136885192

>  <compound_id>  (417) 
4096

>  <target_id>  (417) 
1

>  <reference_id>  (417) 
198

>  <inspiration_ids>  (417) 
[142, 198]

>  <energy_score>  (417) 
-78.25522455093034

>  <distance_score>  (417) 
1.2404228314901011

>  <path>  (417) 
/opt/xchem-fragalysis-2/maxwin/BulkDock/SCRATCH/505735/C4096-P198/C4096-P198.minimised.mol

>  <scratch_subdir>  (417) 
/opt/xchem-fragalysis-2/maxwin/BulkDock/SCRATCH/505735/C4096-P198

>  <fragmenstein_runtime>  (417) 
16.621082067489624

>  <fragmenstein_outcome>  (417) 
too moved

>  <fragmenstein_mode>  (417) 
expansion

>  <fragmenstein_error>  (417) 


$$$$
C4096-P142
     RDKit          3D

 51 54  0  0  0  0  0  0  0  0999 V2000
   -3.4218    2.3125   26.2720 C   0  0  0  0  0  0  0  0  0  0  0  0
   -1.8247    2.5862   26.9503 S   0  0  0  0  0  0  0  0  0  0  0  0
   -0.8634    2.6111   25.8645 O   0  0  0  0  0  0  0  0  0  0  0  0
   -1.9283    3.7232   27.8422 O   0  0  0  0  0  0  0  0  0  0  0  0
   -1.3574    1.2260   27.9617 C   0  0  0  0  0  0  0  0  0  0  0  0
   -0.5306    1.4663   29.0577 C   0  0  0  0  0  0  0  0  0  0  0  0
    0.0107    0.4050   29.8083 C   0  0  0  0  0  0  0  0  0  0  0  0
    0.9715    0.7755   30.9155 C   0  0  0  0  0  0  0  0  0  0  0  0
    2.6024    1.2459   30.2836 S   0  0  0  0  0  0  0  0  0  0  0  0
    2.6788    0.6760   28.7245 N   0  0  0  0  0  0  0  0  0  0  0  0
    3.6156    0.5215   31.0221 O   0  0  0  0  0  0  0  0  0  0  0  0
    2.6608    2.6858   30.1684 O   0  0  0  0  0  0  0  0  0  0  0  0
   -0.2998   -0.9269   29.4369 C   0  0  0  0  0  0  0  0  0  0  0  0
    0.3961   -2.1575   29.9973 C   0  0  0  0  0  0  0  0  0  0  0  0
   -0.2016   -2.6806   31.3288 C   0  0  0  0  0  0  0  0  0  0  0  0
    0.5392   -3.8845   31.7711 N   0  0  0  0  0  0  0  0  0  0  0  0
   -0.0709   -4.9705   32.3948 C   0  0  0  0  0  0  0  0  0  0  0  0
   -0.4315   -4.9878   33.6916 C   0  0  0  0  0  0  0  0  0  0  0  0
   -0.9791   -6.2000   34.2895 C   0  0  0  0  0  0  0  0  0  0  0  0
   -1.2057   -7.3064   33.5667 C   0  0  0  0  0  0  0  0  0  0  0  0
   -0.8982   -7.2961   32.1903 C   0  0  0  0  0  0  0  0  0  0  0  0
   -1.0801   -8.1772   31.2322 N   0  0  0  0  0  0  0  0  0  0  0  0
   -0.5718   -7.6471   30.0777 N   0  0  0  0  0  0  0  0  0  0  0  0
   -0.1079   -6.4502   30.3593 C   0  0  0  0  0  0  0  0  0  0  0  0
   -0.3130   -6.1518   31.6729 N   0  0  0  0  0  0  0  0  0  0  0  0
    1.9800   -3.9037   31.4483 C   0  0  0  0  0  0  0  0  0  0  0  0
    2.4920   -2.4969   31.1490 C   0  0  0  0  0  0  0  0  0  0  0  0
    1.8138   -1.8911   30.0434 O   0  0  0  0  0  0  0  0  0  0  0  0
   -1.2079   -1.1342   28.3799 C   0  0  0  0  0  0  0  0  0  0  0  0
   -1.7005   -0.0651   27.6379 C   0  0  0  0  0  0  0  0  0  0  0  0
   -2.4699   -0.3181   26.5808 F   0  0  0  0  0  0  0  0  0  0  0  0
   -4.1527    2.2171   27.0661 H   0  0  0  0  0  0  0  0  0  0  0  0
   -3.6734    3.1702   25.6443 H   0  0  0  0  0  0  0  0  0  0  0  0
   -3.4014    1.4196   25.6610 H   0  0  0  0  0  0  0  0  0  0  0  0
   -0.2438    2.4963   29.2852 H   0  0  0  0  0  0  0  0  0  0  0  0
    0.5865    1.6369   31.4738 H   0  0  0  0  0  0  0  0  0  0  0  0
    1.0999   -0.0284   31.6388 H   0  0  0  0  0  0  0  0  0  0  0  0
    3.2250   -0.1787   28.6348 H   0  0  0  0  0  0  0  0  0  0  0  0
    2.8542    1.4069   28.0352 H   0  0  0  0  0  0  0  0  0  0  0  0
    0.3013   -2.9675   29.2605 H   0  0  0  0  0  0  0  0  0  0  0  0
   -0.1334   -1.9238   32.1180 H   0  0  0  0  0  0  0  0  0  0  0  0
   -1.2639   -2.9175   31.1906 H   0  0  0  0  0  0  0  0  0  0  0  0
   -0.2927   -4.1260   34.3356 H   0  0  0  0  0  0  0  0  0  0  0  0
   -1.2287   -6.1744   35.3481 H   0  0  0  0  0  0  0  0  0  0  0  0
   -1.6417   -8.1890   34.0154 H   0  0  0  0  0  0  0  0  0  0  0  0
    0.3445   -5.7549   29.6721 H   0  0  0  0  0  0  0  0  0  0  0  0
    2.5454   -4.3279   32.2859 H   0  0  0  0  0  0  0  0  0  0  0  0
    2.1416   -4.5387   30.5706 H   0  0  0  0  0  0  0  0  0  0  0  0
    2.3805   -1.8547   32.0293 H   0  0  0  0  0  0  0  0  0  0  0  0
    3.5580   -2.5288   30.9025 H   0  0  0  0  0  0  0  0  0  0  0  0
   -1.4748   -2.1366   28.0495 H   0  0  0  0  0  0  0  0  0  0  0  0
  1  2  1  0
  2  3  2  0
  2  4  2  0
  2  5  1  0
  5  6  2  0
  6  7  1  0
  7  8  1  0
  8  9  1  0
  9 10  1  0
  9 11  2  0
  9 12  2  0
  7 13  2  0
 13 14  1  0
 14 15  1  0
 15 16  1  0
 16 17  1  0
 17 18  2  0
 18 19  1  0
 19 20  2  0
 20 21  1  0
 21 22  2  0
 22 23  1  0
 23 24  2  0
 24 25  1  0
 16 26  1  0
 26 27  1  0
 27 28  1  0
 13 29  1  0
 29 30  2  0
 30 31  1  0
 30  5  1  0
 28 14  1  0
 25 17  1  0
 25 21  1  0
  1 32  1  0
  1 33  1  0
  1 34  1  0
  6 35  1  0
  8 36  1  0
  8 37  1  0
 10 38  1  0
 10 39  1  0
 14 40  1  0
 15 41  1  0
 15 42  1  0
 18 43  1  0
 19 44  1  0
 20 45  1  0
 24 46  1  0
 26 47  1  0
 26 48  1  0
 27 49  1  0
 27 50  1  0
 29 51  1  0
M  END
>  <Energy>  (418) 
120.74444804012076

>  <compound_id>  (418) 
4096

>  <target_id>  (418) 
1

>  <reference_id>  (418) 
142

>  <inspiration_ids>  (418) 
[142, 199]

>  <energy_score>  (418) 
-79.39439019933116

>  <distance_score>  (418) 
1.2728483209260435

>  <path>  (418) 
/opt/xchem-fragalysis-2/maxwin/BulkDock/SCRATCH/505735/C4096-P142/C4096-P142.minimised.mol

>  <scratch_subdir>  (418) 
/opt/xchem-fragalysis-2/maxwin/BulkDock/SCRATCH/505735/C4096-P142

>  <fragmenstein_runtime>  (418) 
16.89130687713623

>  <fragmenstein_outcome>  (418) 
too moved

>  <fragmenstein_mode>  (418) 
expansion

>  <fragmenstein_error>  (418) 


$$$$
C4096-P199
     RDKit          3D

 51 54  0  0  0  0  0  0  0  0999 V2000
   -3.5508    2.3471   26.5057 C   0  0  0  0  0  0  0  0  0  0  0  0
   -1.8902    2.5668   27.0098 S   0  0  0  0  0  0  0  0  0  0  0  0
   -1.0455    2.5414   25.8325 O   0  0  0  0  0  0  0  0  0  0  0  0
   -1.8775    3.7152   27.8928 O   0  0  0  0  0  0  0  0  0  0  0  0
   -1.3948    1.1937   27.9913 C   0  0  0  0  0  0  0  0  0  0  0  0
   -0.4898    1.4204   29.0298 C   0  0  0  0  0  0  0  0  0  0  0  0
    0.0469    0.3559   29.7739 C   0  0  0  0  0  0  0  0  0  0  0  0
    1.0301    0.7113   30.8676 C   0  0  0  0  0  0  0  0  0  0  0  0
    2.6541    1.1797   30.2283 S   0  0  0  0  0  0  0  0  0  0  0  0
    2.8434    0.3327   28.8036 N   0  0  0  0  0  0  0  0  0  0  0  0
    3.6487    0.6712   31.1488 O   0  0  0  0  0  0  0  0  0  0  0  0
    2.6111    2.5743   29.8529 O   0  0  0  0  0  0  0  0  0  0  0  0
   -0.3216   -0.9695   29.4325 C   0  0  0  0  0  0  0  0  0  0  0  0
    0.3937   -2.2098   29.9459 C   0  0  0  0  0  0  0  0  0  0  0  0
   -0.1096   -2.7585   31.3049 C   0  0  0  0  0  0  0  0  0  0  0  0
    0.6595   -3.9776   31.6440 N   0  0  0  0  0  0  0  0  0  0  0  0
    0.1198   -5.0616   32.3293 C   0  0  0  0  0  0  0  0  0  0  0  0
   -0.1585   -5.0640   33.6456 C   0  0  0  0  0  0  0  0  0  0  0  0
   -0.6532   -6.2747   34.2917 C   0  0  0  0  0  0  0  0  0  0  0  0
   -0.9320   -7.3861   33.5954 C   0  0  0  0  0  0  0  0  0  0  0  0
   -0.7059   -7.3926   32.2033 C   0  0  0  0  0  0  0  0  0  0  0  0
   -0.9566   -8.2787   31.2653 N   0  0  0  0  0  0  0  0  0  0  0  0
   -0.4910   -7.7735   30.0816 N   0  0  0  0  0  0  0  0  0  0  0  0
    0.0186   -6.5865   30.3289 C   0  0  0  0  0  0  0  0  0  0  0  0
   -0.1428   -6.2586   31.6417 N   0  0  0  0  0  0  0  0  0  0  0  0
    2.0968   -3.9438   31.3021 C   0  0  0  0  0  0  0  0  0  0  0  0
    2.5580   -2.5251   30.9787 C   0  0  0  0  0  0  0  0  0  0  0  0
    1.8133   -1.9394   29.9006 O   0  0  0  0  0  0  0  0  0  0  0  0
   -1.3044   -1.1618   28.4389 C   0  0  0  0  0  0  0  0  0  0  0  0
   -1.8188   -0.0876   27.7181 C   0  0  0  0  0  0  0  0  0  0  0  0
   -2.6706   -0.3353   26.7231 F   0  0  0  0  0  0  0  0  0  0  0  0
   -4.1583    2.0911   27.3635 H   0  0  0  0  0  0  0  0  0  0  0  0
   -3.9058    3.2726   26.0491 H   0  0  0  0  0  0  0  0  0  0  0  0
   -3.5764    1.5489   25.7803 H   0  0  0  0  0  0  0  0  0  0  0  0
   -0.1630    2.4443   29.2342 H   0  0  0  0  0  0  0  0  0  0  0  0
    0.6584    1.5675   31.4429 H   0  0  0  0  0  0  0  0  0  0  0  0
    1.1616   -0.1012   31.5807 H   0  0  0  0  0  0  0  0  0  0  0  0
    2.5887   -0.6570   28.8877 H   0  0  0  0  0  0  0  0  0  0  0  0
    2.4432    0.8120   27.9973 H   0  0  0  0  0  0  0  0  0  0  0  0
    0.2547   -3.0094   29.2045 H   0  0  0  0  0  0  0  0  0  0  0  0
    0.0198   -2.0245   32.1076 H   0  0  0  0  0  0  0  0  0  0  0  0
   -1.1794   -2.9913   31.2372 H   0  0  0  0  0  0  0  0  0  0  0  0
    0.0018   -4.1882   34.2660 H   0  0  0  0  0  0  0  0  0  0  0  0
   -0.8308   -6.2300   35.3631 H   0  0  0  0  0  0  0  0  0  0  0  0
   -1.3396   -8.2644   34.0736 H   0  0  0  0  0  0  0  0  0  0  0  0
    0.4737   -5.9167   29.6188 H   0  0  0  0  0  0  0  0  0  0  0  0
    2.6917   -4.3396   32.1331 H   0  0  0  0  0  0  0  0  0  0  0  0
    2.2633   -4.5814   30.4272 H   0  0  0  0  0  0  0  0  0  0  0  0
    2.4709   -1.8840   31.8619 H   0  0  0  0  0  0  0  0  0  0  0  0
    3.6122   -2.5290   30.6842 H   0  0  0  0  0  0  0  0  0  0  0  0
   -1.6180   -2.1604   28.1383 H   0  0  0  0  0  0  0  0  0  0  0  0
  1  2  1  0
  2  3  2  0
  2  4  2  0
  2  5  1  0
  5  6  2  0
  6  7  1  0
  7  8  1  0
  8  9  1  0
  9 10  1  0
  9 11  2  0
  9 12  2  0
  7 13  2  0
 13 14  1  0
 14 15  1  0
 15 16  1  0
 16 17  1  0
 17 18  2  0
 18 19  1  0
 19 20  2  0
 20 21  1  0
 21 22  2  0
 22 23  1  0
 23 24  2  0
 24 25  1  0
 16 26  1  0
 26 27  1  0
 27 28  1  0
 13 29  1  0
 29 30  2  0
 30 31  1  0
 30  5  1  0
 28 14  1  0
 25 17  1  0
 25 21  1  0
  1 32  1  0
  1 33  1  0
  1 34  1  0
  6 35  1  0
  8 36  1  0
  8 37  1  0
 10 38  1  0
 10 39  1  0
 14 40  1  0
 15 41  1  0
 15 42  1  0
 18 43  1  0
 19 44  1  0
 20 45  1  0
 24 46  1  0
 26 47  1  0
 26 48  1  0
 27 49  1  0
 27 50  1  0
 29 51  1  0
M  END
>  <Energy>  (419) 
119.90444530843726

>  <compound_id>  (419) 
4096

>  <target_id>  (419) 
1

>  <reference_id>  (419) 
199

>  <inspiration_ids>  (419) 
[142, 199]

>  <energy_score>  (419) 
-80.23439293101433

>  <distance_score>  (419) 
1.271911229869734

>  <path>  (419) 
/opt/xchem-fragalysis-2/maxwin/BulkDock/SCRATCH/505735/C4096-P199/C4096-P199.minimised.mol

>  <scratch_subdir>  (419) 
/opt/xchem-fragalysis-2/maxwin/BulkDock/SCRATCH/505735/C4096-P199

>  <fragmenstein_runtime>  (419) 
16.794167280197144

>  <fragmenstein_outcome>  (419) 
too moved

>  <fragmenstein_mode>  (419) 
expansion

>  <fragmenstein_error>  (419) 


$$$$
C4099-P143
     RDKit          3D

 66 71  0  0  0  0  0  0  0  0999 V2000
   -4.1414   -2.7983    6.5858 O   0  0  0  0  0  0  0  0  0  0  0  0
   -5.5442   -2.6552    6.9108 N   0  0  0  0  0  0  0  0  0  0  0  0
   -6.2718   -2.6004    5.6472 C   0  0  0  0  0  0  0  0  0  0  0  0
   -5.8849   -1.3760    4.8186 C   0  0  0  0  0  0  0  0  0  0  0  0
   -7.1893   -0.6938    4.4578 C   0  0  0  0  0  0  0  0  0  0  0  0
   -8.2297   -1.0280    5.5649 C   0  0  0  0  0  0  0  0  0  0  0  0
   -9.6358   -1.0485    4.8672 C   0  0  0  0  0  0  0  0  0  0  0  0
  -10.2760    0.3289    4.7790 C   0  0  0  0  0  0  0  0  0  0  0  0
  -11.3897    0.2887    3.8916 O   0  0  0  0  0  0  0  0  0  0  0  0
  -10.6361    0.8771    6.1801 C   0  0  0  0  0  0  0  0  0  0  0  0
  -12.1585    0.8682    6.4635 C   0  0  0  0  0  0  0  0  0  0  0  0
  -12.6273    1.4841    7.7993 C   0  0  0  0  0  0  0  0  0  0  0  0
  -12.4433    0.5764    8.9584 N   0  0  0  0  0  0  0  0  0  0  0  0
  -12.6670    1.0879   10.2740 C   0  0  0  0  0  0  0  0  0  0  0  0
  -13.5774    0.5649   11.1358 C   0  0  0  0  0  0  0  0  0  0  0  0
  -13.7954    1.1356   12.4536 C   0  0  0  0  0  0  0  0  0  0  0  0
  -13.1222    2.2225   12.8626 C   0  0  0  0  0  0  0  0  0  0  0  0
  -12.1664    2.8106   11.9984 C   0  0  0  0  0  0  0  0  0  0  0  0
  -11.4037    3.8757   12.1231 N   0  0  0  0  0  0  0  0  0  0  0  0
  -10.6123    3.9601   11.0059 N   0  0  0  0  0  0  0  0  0  0  0  0
  -10.9097    2.9399   10.2340 C   0  0  0  0  0  0  0  0  0  0  0  0
  -11.9421    2.2100   10.7622 N   0  0  0  0  0  0  0  0  0  0  0  0
  -13.0374   -0.7458    8.6221 C   0  0  0  0  0  0  0  0  0  0  0  0
  -12.6330   -1.3308    7.2735 C   0  0  0  0  0  0  0  0  0  0  0  0
  -12.7467   -0.4051    6.2008 O   0  0  0  0  0  0  0  0  0  0  0  0
   -9.7532    0.2250    7.2668 C   0  0  0  0  0  0  0  0  0  0  0  0
   -8.2842   -0.0008    6.8249 C   0  0  0  0  0  0  0  0  0  0  0  0
   -7.4763   -0.3693    8.0719 C   0  0  0  0  0  0  0  0  0  0  0  0
   -6.1288    0.1523    7.8422 N   0  0  0  0  0  0  0  0  0  0  0  0
   -6.2604    1.2956    6.9500 N   0  0  0  0  0  0  0  0  0  0  0  0
   -7.6713    1.3805    6.5646 C   0  0  0  0  0  0  0  0  0  0  0  0
   -7.8059   -2.5009    5.8801 C   0  0  0  0  0  0  0  0  0  0  0  0
   -8.4210   -3.4180    4.9559 O   0  0  0  0  0  0  0  0  0  0  0  0
   -3.7123   -2.1751    7.2078 H   0  0  0  0  0  0  0  0  0  0  0  0
   -5.7510   -3.5646    7.3275 H   0  0  0  0  0  0  0  0  0  0  0  0
   -6.0418   -3.5081    5.0737 H   0  0  0  0  0  0  0  0  0  0  0  0
   -5.2188   -0.6870    5.3443 H   0  0  0  0  0  0  0  0  0  0  0  0
   -5.3400   -1.6761    3.9155 H   0  0  0  0  0  0  0  0  0  0  0  0
   -7.5109   -1.1175    3.4959 H   0  0  0  0  0  0  0  0  0  0  0  0
   -7.0457    0.3681    4.2559 H   0  0  0  0  0  0  0  0  0  0  0  0
   -9.5782   -1.4741    3.8563 H   0  0  0  0  0  0  0  0  0  0  0  0
  -10.3127   -1.7250    5.4041 H   0  0  0  0  0  0  0  0  0  0  0  0
   -9.5636    1.0139    4.3069 H   0  0  0  0  0  0  0  0  0  0  0  0
  -12.0357   -0.3496    4.2684 H   0  0  0  0  0  0  0  0  0  0  0  0
  -10.3653    1.9434    6.1646 H   0  0  0  0  0  0  0  0  0  0  0  0
  -12.5937    1.5291    5.7004 H   0  0  0  0  0  0  0  0  0  0  0  0
  -13.7017    1.7010    7.7203 H   0  0  0  0  0  0  0  0  0  0  0  0
  -12.1260    2.4441    7.9410 H   0  0  0  0  0  0  0  0  0  0  0  0
  -14.2096   -0.2771   10.8795 H   0  0  0  0  0  0  0  0  0  0  0  0
  -14.5302    0.6675   13.0997 H   0  0  0  0  0  0  0  0  0  0  0  0
  -13.2757    2.6635   13.8404 H   0  0  0  0  0  0  0  0  0  0  0  0
  -10.4190    2.6941    9.3082 H   0  0  0  0  0  0  0  0  0  0  0  0
  -14.1298   -0.6376    8.6205 H   0  0  0  0  0  0  0  0  0  0  0  0
  -12.7586   -1.4557    9.3914 H   0  0  0  0  0  0  0  0  0  0  0  0
  -11.6472   -1.7891    7.2885 H   0  0  0  0  0  0  0  0  0  0  0  0
  -13.3115   -2.1603    7.0419 H   0  0  0  0  0  0  0  0  0  0  0  0
  -10.1250   -0.7377    7.6057 H   0  0  0  0  0  0  0  0  0  0  0  0
   -9.7861    0.8654    8.1552 H   0  0  0  0  0  0  0  0  0  0  0  0
   -7.4736   -1.4323    8.3092 H   0  0  0  0  0  0  0  0  0  0  0  0
   -7.8674    0.1301    8.9682 H   0  0  0  0  0  0  0  0  0  0  0  0
   -5.5930   -0.6069    7.3960 H   0  0  0  0  0  0  0  0  0  0  0  0
   -6.0467    2.1605    7.4532 H   0  0  0  0  0  0  0  0  0  0  0  0
   -8.1365    2.1387    7.2112 H   0  0  0  0  0  0  0  0  0  0  0  0
   -7.7862    1.7580    5.5472 H   0  0  0  0  0  0  0  0  0  0  0  0
   -8.1293   -2.8238    6.8737 H   0  0  0  0  0  0  0  0  0  0  0  0
   -8.2630   -4.3274    5.2758 H   0  0  0  0  0  0  0  0  0  0  0  0
  1  2  1  0
  2  3  1  0
  3  4  1  0
  4  5  1  0
  5  6  1  0
  6  7  1  0
  7  8  1  0
  8  9  1  0
  8 10  1  0
 10 11  1  0
 11 12  1  0
 12 13  1  0
 13 14  1  0
 14 15  2  0
 15 16  1  0
 16 17  2  0
 17 18  1  0
 18 19  2  0
 19 20  1  0
 20 21  2  0
 21 22  1  0
 13 23  1  0
 23 24  1  0
 24 25  1  0
 10 26  1  0
 26 27  1  0
 27 28  1  0
 28 29  1  0
 29 30  1  0
 30 31  1  0
  6 32  1  0
 32 33  1  0
 32  3  1  0
 27  6  1  0
 25 11  1  0
 31 27  1  0
 22 14  1  0
 22 18  1  0
  1 34  1  0
  2 35  1  0
  3 36  1  0
  4 37  1  0
  4 38  1  0
  5 39  1  0
  5 40  1  0
  7 41  1  0
  7 42  1  0
  8 43  1  0
  9 44  1  0
 10 45  1  0
 11 46  1  0
 12 47  1  0
 12 48  1  0
 15 49  1  0
 16 50  1  0
 17 51  1  0
 21 52  1  0
 23 53  1  0
 23 54  1  0
 24 55  1  0
 24 56  1  0
 26 57  1  0
 26 58  1  0
 28 59  1  0
 28 60  1  0
 29 61  1  0
 30 62  1  0
 31 63  1  0
 31 64  1  0
 32 65  1  0
 33 66  1  0
M  END
>  <Energy>  (420) 
275.43465393334145

>  <compound_id>  (420) 
4099

>  <target_id>  (420) 
1

>  <reference_id>  (420) 
143

>  <inspiration_ids>  (420) 
[143, 17]

>  <energy_score>  (420) 
-103.79105964307644

>  <distance_score>  (420) 
1.6936522137635242

>  <path>  (420) 
/opt/xchem-fragalysis-2/maxwin/BulkDock/SCRATCH/505735/C4099-P143/C4099-P143.minimised.mol

>  <scratch_subdir>  (420) 
/opt/xchem-fragalysis-2/maxwin/BulkDock/SCRATCH/505735/C4099-P143

>  <fragmenstein_runtime>  (420) 
5.811988830566406

>  <fragmenstein_outcome>  (420) 
too moved

>  <fragmenstein_mode>  (420) 
expansion

>  <fragmenstein_error>  (420) 


$$$$
C4099-P17
     RDKit          3D

 66 71  0  0  0  0  0  0  0  0999 V2000
   -4.1719   -3.0059    6.9979 O   0  0  0  0  0  0  0  0  0  0  0  0
   -5.4126   -2.2757    7.1719 N   0  0  0  0  0  0  0  0  0  0  0  0
   -6.4298   -2.9858    6.3806 C   0  0  0  0  0  0  0  0  0  0  0  0
   -6.3317   -2.5651    4.9219 C   0  0  0  0  0  0  0  0  0  0  0  0
   -6.8943   -1.1424    4.9499 C   0  0  0  0  0  0  0  0  0  0  0  0
   -8.0519   -1.1317    6.0180 C   0  0  0  0  0  0  0  0  0  0  0  0
   -9.3929   -1.2405    5.2064 C   0  0  0  0  0  0  0  0  0  0  0  0
  -10.0495    0.0990    4.8993 C   0  0  0  0  0  0  0  0  0  0  0  0
  -11.1355   -0.1000    3.9994 O   0  0  0  0  0  0  0  0  0  0  0  0
  -10.4717    0.8463    6.1882 C   0  0  0  0  0  0  0  0  0  0  0  0
  -11.9957    0.7627    6.4780 C   0  0  0  0  0  0  0  0  0  0  0  0
  -12.5184    1.4248    7.7767 C   0  0  0  0  0  0  0  0  0  0  0  0
  -12.3710    0.5692    8.9837 N   0  0  0  0  0  0  0  0  0  0  0  0
  -12.6855    1.1139   10.2651 C   0  0  0  0  0  0  0  0  0  0  0  0
  -13.6152    0.5728   11.0954 C   0  0  0  0  0  0  0  0  0  0  0  0
  -13.9311    1.1708   12.3786 C   0  0  0  0  0  0  0  0  0  0  0  0
  -13.3371    2.3052   12.7792 C   0  0  0  0  0  0  0  0  0  0  0  0
  -12.3603    2.9108   11.9505 C   0  0  0  0  0  0  0  0  0  0  0  0
  -11.6586    4.0165   12.0769 N   0  0  0  0  0  0  0  0  0  0  0  0
  -10.8046    4.0993   11.0073 N   0  0  0  0  0  0  0  0  0  0  0  0
  -11.0087    3.0400   10.2588 C   0  0  0  0  0  0  0  0  0  0  0  0
  -12.0375    2.2818   10.7517 N   0  0  0  0  0  0  0  0  0  0  0  0
  -12.8856   -0.7912    8.6800 C   0  0  0  0  0  0  0  0  0  0  0  0
  -12.3208   -1.4064    7.4117 C   0  0  0  0  0  0  0  0  0  0  0  0
  -12.5023   -0.5615    6.2816 O   0  0  0  0  0  0  0  0  0  0  0  0
   -9.5491    0.4891    7.3735 C   0  0  0  0  0  0  0  0  0  0  0  0
   -8.0886    0.1746    6.9638 C   0  0  0  0  0  0  0  0  0  0  0  0
   -7.2179    0.1648    8.2310 C   0  0  0  0  0  0  0  0  0  0  0  0
   -5.8794    0.5257    7.7615 N   0  0  0  0  0  0  0  0  0  0  0  0
   -6.0898    1.5630    6.7752 N   0  0  0  0  0  0  0  0  0  0  0  0
   -7.4706    1.4256    6.2893 C   0  0  0  0  0  0  0  0  0  0  0  0
   -7.8742   -2.5310    6.7043 C   0  0  0  0  0  0  0  0  0  0  0  0
   -8.1850   -2.5924    8.0812 O   0  0  0  0  0  0  0  0  0  0  0  0
   -3.5110   -2.2870    6.9824 H   0  0  0  0  0  0  0  0  0  0  0  0
   -5.6505   -2.4251    8.1563 H   0  0  0  0  0  0  0  0  0  0  0  0
   -6.3459   -4.0661    6.5218 H   0  0  0  0  0  0  0  0  0  0  0  0
   -5.3128   -2.5967    4.5225 H   0  0  0  0  0  0  0  0  0  0  0  0
   -6.9566   -3.2092    4.2913 H   0  0  0  0  0  0  0  0  0  0  0  0
   -7.2270   -0.8340    3.9525 H   0  0  0  0  0  0  0  0  0  0  0  0
   -6.0695   -0.4790    5.2085 H   0  0  0  0  0  0  0  0  0  0  0  0
   -9.2372   -1.7923    4.2688 H   0  0  0  0  0  0  0  0  0  0  0  0
  -10.1155   -1.8603    5.7469 H   0  0  0  0  0  0  0  0  0  0  0  0
   -9.3389    0.7178    4.3439 H   0  0  0  0  0  0  0  0  0  0  0  0
  -11.7824   -0.6792    4.4588 H   0  0  0  0  0  0  0  0  0  0  0  0
  -10.2944    1.9135    5.9847 H   0  0  0  0  0  0  0  0  0  0  0  0
  -12.4622    1.3457    5.6709 H   0  0  0  0  0  0  0  0  0  0  0  0
  -13.5922    1.6202    7.6493 H   0  0  0  0  0  0  0  0  0  0  0  0
  -12.0369    2.3978    7.8967 H   0  0  0  0  0  0  0  0  0  0  0  0
  -14.1946   -0.3056   10.8366 H   0  0  0  0  0  0  0  0  0  0  0  0
  -14.6767    0.6874   13.0007 H   0  0  0  0  0  0  0  0  0  0  0  0
  -13.5732    2.7714   13.7265 H   0  0  0  0  0  0  0  0  0  0  0  0
  -10.4515    2.7883    9.3746 H   0  0  0  0  0  0  0  0  0  0  0  0
  -12.6462   -1.4451    9.5109 H   0  0  0  0  0  0  0  0  0  0  0  0
  -13.9771   -0.7369    8.5767 H   0  0  0  0  0  0  0  0  0  0  0  0
  -12.8551   -2.3394    7.2016 H   0  0  0  0  0  0  0  0  0  0  0  0
  -11.2764   -1.6854    7.5232 H   0  0  0  0  0  0  0  0  0  0  0  0
   -9.9189   -0.3515    7.9582 H   0  0  0  0  0  0  0  0  0  0  0  0
   -9.5607    1.3373    8.0652 H   0  0  0  0  0  0  0  0  0  0  0  0
   -7.1958   -0.7579    8.8048 H   0  0  0  0  0  0  0  0  0  0  0  0
   -7.5473    0.9350    8.9410 H   0  0  0  0  0  0  0  0  0  0  0  0
   -5.4749   -0.3302    7.3479 H   0  0  0  0  0  0  0  0  0  0  0  0
   -5.4277    1.5037    5.9974 H   0  0  0  0  0  0  0  0  0  0  0  0
   -7.9988    2.3409    6.5835 H   0  0  0  0  0  0  0  0  0  0  0  0
   -7.4860    1.3984    5.1970 H   0  0  0  0  0  0  0  0  0  0  0  0
   -8.5259   -3.2749    6.2233 H   0  0  0  0  0  0  0  0  0  0  0  0
   -9.1538   -2.6622    8.1862 H   0  0  0  0  0  0  0  0  0  0  0  0
  1  2  1  0
  2  3  1  0
  3  4  1  0
  4  5  1  0
  5  6  1  0
  6  7  1  0
  7  8  1  0
  8  9  1  0
  8 10  1  0
 10 11  1  0
 11 12  1  0
 12 13  1  0
 13 14  1  0
 14 15  2  0
 15 16  1  0
 16 17  2  0
 17 18  1  0
 18 19  2  0
 19 20  1  0
 20 21  2  0
 21 22  1  0
 13 23  1  0
 23 24  1  0
 24 25  1  0
 10 26  1  0
 26 27  1  0
 27 28  1  0
 28 29  1  0
 29 30  1  0
 30 31  1  0
  6 32  1  0
 32 33  1  0
 32  3  1  0
 27  6  1  0
 25 11  1  0
 31 27  1  0
 22 14  1  0
 22 18  1  0
  1 34  1  0
  2 35  1  0
  3 36  1  0
  4 37  1  0
  4 38  1  0
  5 39  1  0
  5 40  1  0
  7 41  1  0
  7 42  1  0
  8 43  1  0
  9 44  1  0
 10 45  1  0
 11 46  1  0
 12 47  1  0
 12 48  1  0
 15 49  1  0
 16 50  1  0
 17 51  1  0
 21 52  1  0
 23 53  1  0
 23 54  1  0
 24 55  1  0
 24 56  1  0
 26 57  1  0
 26 58  1  0
 28 59  1  0
 28 60  1  0
 29 61  1  0
 30 62  1  0
 31 63  1  0
 31 64  1  0
 32 65  1  0
 33 66  1  0
M  END
>  <Energy>  (421) 
275.79734700533385

>  <compound_id>  (421) 
4099

>  <target_id>  (421) 
1

>  <reference_id>  (421) 
17

>  <inspiration_ids>  (421) 
[143, 17]

>  <energy_score>  (421) 
-103.42836657108421

>  <distance_score>  (421) 
1.4085075693205047

>  <path>  (421) 
/opt/xchem-fragalysis-2/maxwin/BulkDock/SCRATCH/505735/C4099-P17/C4099-P17.minimised.mol

>  <scratch_subdir>  (421) 
/opt/xchem-fragalysis-2/maxwin/BulkDock/SCRATCH/505735/C4099-P17

>  <fragmenstein_runtime>  (421) 
7.741198539733887

>  <fragmenstein_outcome>  (421) 
too moved

>  <fragmenstein_mode>  (421) 
expansion

>  <fragmenstein_error>  (421) 


$$$$
C4103-P143
     RDKit          3D

 42 46  0  0  0  0  0  0  0  0999 V2000
   -4.7480   -2.9173    5.2751 O   0  0  0  0  0  0  0  0  0  0  0  0
   -4.8634   -1.7140    6.0719 S   0  0  0  0  0  0  0  0  0  0  0  0
   -4.0104   -1.4379    7.2109 O   0  0  0  0  0  0  0  0  0  0  0  0
   -6.5079   -1.5730    6.6030 C   0  0  0  0  0  0  0  0  0  0  0  0
   -7.3042   -2.5982    7.0635 C   0  0  0  0  0  0  0  0  0  0  0  0
   -8.6214   -2.2872    7.3842 C   0  0  0  0  0  0  0  0  0  0  0  0
   -9.1295   -0.9809    7.2007 C   0  0  0  0  0  0  0  0  0  0  0  0
  -10.5823   -0.7069    7.5445 C   0  0  0  0  0  0  0  0  0  0  0  0
  -10.7426    0.0399    8.8952 C   0  0  0  0  0  0  0  0  0  0  0  0
  -12.1273    0.5737    9.0825 N   0  0  0  0  0  0  0  0  0  0  0  0
  -12.5335    1.0548   10.3343 C   0  0  0  0  0  0  0  0  0  0  0  0
  -13.5011    0.4844   11.0881 C   0  0  0  0  0  0  0  0  0  0  0  0
  -13.8484    1.0357   12.3899 C   0  0  0  0  0  0  0  0  0  0  0  0
  -13.2450    2.1384   12.8697 C   0  0  0  0  0  0  0  0  0  0  0  0
  -12.2700    2.7973   12.0776 C   0  0  0  0  0  0  0  0  0  0  0  0
  -11.5837    3.9067   12.2516 N   0  0  0  0  0  0  0  0  0  0  0  0
  -10.8143    4.1099   11.1307 N   0  0  0  0  0  0  0  0  0  0  0  0
  -11.0513    3.1171   10.3038 C   0  0  0  0  0  0  0  0  0  0  0  0
  -11.9471    2.2356   10.8500 N   0  0  0  0  0  0  0  0  0  0  0  0
  -13.0879    0.0150    8.1122 C   0  0  0  0  0  0  0  0  0  0  0  0
  -12.5803    0.2547    6.6751 C   0  0  0  0  0  0  0  0  0  0  0  0
  -11.1695    0.0558    6.4788 O   0  0  0  0  0  0  0  0  0  0  0  0
   -8.2958    0.0234    6.6644 C   0  0  0  0  0  0  0  0  0  0  0  0
   -6.9923   -0.2984    6.3273 C   0  0  0  0  0  0  0  0  0  0  0  0
   -6.1687    0.5839    5.6519 O   0  0  0  0  0  0  0  0  0  0  0  0
   -5.1479   -0.2542    5.0408 C   0  0  0  0  0  0  0  0  0  0  0  0
   -4.0414    0.4991    4.8075 F   0  0  0  0  0  0  0  0  0  0  0  0
   -6.9268   -3.6114    7.1569 H   0  0  0  0  0  0  0  0  0  0  0  0
   -9.2681   -3.0756    7.7668 H   0  0  0  0  0  0  0  0  0  0  0  0
  -11.1136   -1.6661    7.5757 H   0  0  0  0  0  0  0  0  0  0  0  0
  -10.4847   -0.6340    9.7217 H   0  0  0  0  0  0  0  0  0  0  0  0
  -10.0411    0.8793    8.9289 H   0  0  0  0  0  0  0  0  0  0  0  0
  -14.0271   -0.4047   10.7596 H   0  0  0  0  0  0  0  0  0  0  0  0
  -14.6073    0.5253   12.9729 H   0  0  0  0  0  0  0  0  0  0  0  0
  -13.4843    2.5573   13.8407 H   0  0  0  0  0  0  0  0  0  0  0  0
  -10.6305    3.0007    9.3179 H   0  0  0  0  0  0  0  0  0  0  0  0
  -14.0768    0.4765    8.2184 H   0  0  0  0  0  0  0  0  0  0  0  0
  -13.2073   -1.0588    8.3004 H   0  0  0  0  0  0  0  0  0  0  0  0
  -12.7892    1.2886    6.3793 H   0  0  0  0  0  0  0  0  0  0  0  0
  -13.1174   -0.3968    5.9774 H   0  0  0  0  0  0  0  0  0  0  0  0
   -8.6891    1.0171    6.4643 H   0  0  0  0  0  0  0  0  0  0  0  0
   -5.5236   -0.5994    4.0701 H   0  0  0  0  0  0  0  0  0  0  0  0
  1  2  2  0
  2  3  2  0
  2  4  1  0
  4  5  2  0
  5  6  1  0
  6  7  2  0
  7  8  1  0
  8  9  1  0
  9 10  1  0
 10 11  1  0
 11 12  2  0
 12 13  1  0
 13 14  2  0
 14 15  1  0
 15 16  2  0
 16 17  1  0
 17 18  2  0
 18 19  1  0
 10 20  1  0
 20 21  1  0
 21 22  1  0
  7 23  1  0
 23 24  2  0
 24 25  1  0
 25 26  1  0
 26 27  1  0
 26  2  1  0
 24  4  1  0
 22  8  1  0
 19 11  1  0
 19 15  1  0
  5 28  1  0
  6 29  1  0
  8 30  1  0
  9 31  1  0
  9 32  1  0
 12 33  1  0
 13 34  1  0
 14 35  1  0
 18 36  1  0
 20 37  1  0
 20 38  1  0
 21 39  1  0
 21 40  1  0
 23 41  1  0
 26 42  1  0
M  END
>  <Energy>  (422) 
240.05652229799171

>  <compound_id>  (422) 
4103

>  <target_id>  (422) 
1

>  <reference_id>  (422) 
143

>  <inspiration_ids>  (422) 
[143, 51]

>  <energy_score>  (422) 
-52.11615334003557

>  <distance_score>  (422) 
0.5945633069904956

>  <path>  (422) 
/opt/xchem-fragalysis-2/maxwin/BulkDock/SCRATCH/505735/C4103-P143/C4103-P143.minimised.mol

>  <scratch_subdir>  (422) 
/opt/xchem-fragalysis-2/maxwin/BulkDock/SCRATCH/505735/C4103-P143

>  <fragmenstein_runtime>  (422) 
7.848250865936279

>  <fragmenstein_outcome>  (422) 
acceptable

>  <fragmenstein_mode>  (422) 
expansion

>  <fragmenstein_error>  (422) 


$$$$
C4103-P51
     RDKit          3D

 42 46  0  0  0  0  0  0  0  0999 V2000
   -5.1732   -2.5890    6.4310 O   0  0  0  0  0  0  0  0  0  0  0  0
   -5.4329   -1.3050    7.0535 S   0  0  0  0  0  0  0  0  0  0  0  0
   -4.7062   -0.8483    8.2192 O   0  0  0  0  0  0  0  0  0  0  0  0
   -7.1205   -1.3041    7.4148 C   0  0  0  0  0  0  0  0  0  0  0  0
   -7.8777   -2.4387    7.5804 C   0  0  0  0  0  0  0  0  0  0  0  0
   -9.2472   -2.2723    7.5696 C   0  0  0  0  0  0  0  0  0  0  0  0
   -9.8224   -0.9951    7.4262 C   0  0  0  0  0  0  0  0  0  0  0  0
  -11.2959   -0.8126    7.6591 C   0  0  0  0  0  0  0  0  0  0  0  0
  -11.4712   -0.1653    9.0560 C   0  0  0  0  0  0  0  0  0  0  0  0
  -12.7786    0.5132    9.1933 N   0  0  0  0  0  0  0  0  0  0  0  0
  -13.1266    1.0355   10.4342 C   0  0  0  0  0  0  0  0  0  0  0  0
  -14.0362    0.4795   11.2623 C   0  0  0  0  0  0  0  0  0  0  0  0
  -14.3041    1.0807   12.5572 C   0  0  0  0  0  0  0  0  0  0  0  0
  -13.6812    2.2073   12.9492 C   0  0  0  0  0  0  0  0  0  0  0  0
  -12.7454    2.8343   12.0847 C   0  0  0  0  0  0  0  0  0  0  0  0
  -12.0381    3.9415   12.1730 N   0  0  0  0  0  0  0  0  0  0  0  0
  -11.3087    4.0767   11.0140 N   0  0  0  0  0  0  0  0  0  0  0  0
  -11.5992    3.0521   10.2460 C   0  0  0  0  0  0  0  0  0  0  0  0
  -12.4959    2.2231   10.8687 N   0  0  0  0  0  0  0  0  0  0  0  0
  -13.7673    0.0340    8.2217 C   0  0  0  0  0  0  0  0  0  0  0  0
  -13.2306    0.2671    6.7944 C   0  0  0  0  0  0  0  0  0  0  0  0
  -11.8268    0.0222    6.6213 O   0  0  0  0  0  0  0  0  0  0  0  0
   -9.0243    0.1201    7.1453 C   0  0  0  0  0  0  0  0  0  0  0  0
   -7.6735   -0.0702    7.0764 C   0  0  0  0  0  0  0  0  0  0  0  0
   -6.8680    0.8884    6.5073 O   0  0  0  0  0  0  0  0  0  0  0  0
   -5.8565    0.0766    5.8891 C   0  0  0  0  0  0  0  0  0  0  0  0
   -4.8405    0.8987    5.5335 F   0  0  0  0  0  0  0  0  0  0  0  0
   -7.4388   -3.4278    7.6466 H   0  0  0  0  0  0  0  0  0  0  0  0
   -9.8772   -3.1492    7.6728 H   0  0  0  0  0  0  0  0  0  0  0  0
  -11.8142   -1.7779    7.6024 H   0  0  0  0  0  0  0  0  0  0  0  0
  -11.3569   -0.9271    9.8365 H   0  0  0  0  0  0  0  0  0  0  0  0
  -10.6878    0.5787    9.2381 H   0  0  0  0  0  0  0  0  0  0  0  0
  -14.5642   -0.4304   10.9996 H   0  0  0  0  0  0  0  0  0  0  0  0
  -15.0240    0.5931   13.2058 H   0  0  0  0  0  0  0  0  0  0  0  0
  -13.8755    2.6622   13.9110 H   0  0  0  0  0  0  0  0  0  0  0  0
  -11.2170    2.8701    9.2538 H   0  0  0  0  0  0  0  0  0  0  0  0
  -14.7273    0.5519    8.3328 H   0  0  0  0  0  0  0  0  0  0  0  0
  -13.9512   -1.0337    8.3860 H   0  0  0  0  0  0  0  0  0  0  0  0
  -13.3999    1.3098    6.5040 H   0  0  0  0  0  0  0  0  0  0  0  0
  -13.7797   -0.3597    6.0835 H   0  0  0  0  0  0  0  0  0  0  0  0
   -9.4665    1.0903    6.9356 H   0  0  0  0  0  0  0  0  0  0  0  0
   -6.2811   -0.3590    4.9762 H   0  0  0  0  0  0  0  0  0  0  0  0
  1  2  2  0
  2  3  2  0
  2  4  1  0
  4  5  2  0
  5  6  1  0
  6  7  2  0
  7  8  1  0
  8  9  1  0
  9 10  1  0
 10 11  1  0
 11 12  2  0
 12 13  1  0
 13 14  2  0
 14 15  1  0
 15 16  2  0
 16 17  1  0
 17 18  2  0
 18 19  1  0
 10 20  1  0
 20 21  1  0
 21 22  1  0
  7 23  1  0
 23 24  2  0
 24 25  1  0
 25 26  1  0
 26 27  1  0
 26  2  1  0
 24  4  1  0
 22  8  1  0
 19 11  1  0
 19 15  1  0
  5 28  1  0
  6 29  1  0
  8 30  1  0
  9 31  1  0
  9 32  1  0
 12 33  1  0
 13 34  1  0
 14 35  1  0
 18 36  1  0
 20 37  1  0
 20 38  1  0
 21 39  1  0
 21 40  1  0
 23 41  1  0
 26 42  1  0
M  END
>  <Energy>  (423) 
251.65244167821115

>  <compound_id>  (423) 
4103

>  <target_id>  (423) 
1

>  <reference_id>  (423) 
51

>  <inspiration_ids>  (423) 
[143, 51]

>  <energy_score>  (423) 
-40.52023395982053

>  <distance_score>  (423) 
0.9438615752714263

>  <path>  (423) 
/opt/xchem-fragalysis-2/maxwin/BulkDock/SCRATCH/505735/C4103-P51/C4103-P51.minimised.mol

>  <scratch_subdir>  (423) 
/opt/xchem-fragalysis-2/maxwin/BulkDock/SCRATCH/505735/C4103-P51

>  <fragmenstein_runtime>  (423) 
7.617807865142822

>  <fragmenstein_outcome>  (423) 
acceptable

>  <fragmenstein_mode>  (423) 
expansion

>  <fragmenstein_error>  (423) 


$$$$
C4104-P143
     RDKit          3D

 59 63  0  0  0  0  0  0  0  0999 V2000
   -7.8158    2.1347    5.4573 N   0  0  0  0  0  0  0  0  0  0  0  0
   -7.8213    1.5061    6.7652 C   0  0  0  0  0  0  0  0  0  0  0  0
   -6.5587    0.6023    6.7773 C   0  0  0  0  0  0  0  0  0  0  0  0
   -6.8686   -0.9018    6.9179 C   0  0  0  0  0  0  0  0  0  0  0  0
   -7.6150   -1.0215    8.2522 C   0  0  0  0  0  0  0  0  0  0  0  0
   -8.8169   -0.0521    8.4104 C   0  0  0  0  0  0  0  0  0  0  0  0
   -9.1230    0.6925    7.0970 C   0  0  0  0  0  0  0  0  0  0  0  0
  -10.5667    1.2505    6.8503 C   0  0  0  0  0  0  0  0  0  0  0  0
  -11.3562    0.2103    6.2001 O   0  0  0  0  0  0  0  0  0  0  0  0
  -11.7249   -0.8282    7.1051 C   0  0  0  0  0  0  0  0  0  0  0  0
  -12.4443   -0.3053    8.3493 C   0  0  0  0  0  0  0  0  0  0  0  0
  -11.8168    0.8820    9.0291 N   0  0  0  0  0  0  0  0  0  0  0  0
  -12.3509    1.2620   10.3090 C   0  0  0  0  0  0  0  0  0  0  0  0
  -13.5051    0.7460   10.8142 C   0  0  0  0  0  0  0  0  0  0  0  0
  -14.0612    1.2011   12.0797 C   0  0  0  0  0  0  0  0  0  0  0  0
  -13.4845    2.1927   12.7771 C   0  0  0  0  0  0  0  0  0  0  0  0
  -12.2800    2.7583   12.2971 C   0  0  0  0  0  0  0  0  0  0  0  0
  -11.5274    3.7345   12.7527 N   0  0  0  0  0  0  0  0  0  0  0  0
  -10.3854    3.7705   12.0038 N   0  0  0  0  0  0  0  0  0  0  0  0
  -10.4824    2.8161   11.1099 C   0  0  0  0  0  0  0  0  0  0  0  0
  -11.7188    2.2322   11.1373 N   0  0  0  0  0  0  0  0  0  0  0  0
  -11.3926    1.8720    8.0085 C   0  0  0  0  0  0  0  0  0  0  0  0
  -12.5652    2.4715    7.5023 O   0  0  0  0  0  0  0  0  0  0  0  0
  -10.6535    2.9393    8.5238 O   0  0  0  0  0  0  0  0  0  0  0  0
   -7.7302   -1.5204    5.7779 C   0  0  0  0  0  0  0  0  0  0  0  0
   -6.9856   -2.5199    5.1104 O   0  0  0  0  0  0  0  0  0  0  0  0
   -5.6380   -2.1739    5.3395 C   0  0  0  0  0  0  0  0  0  0  0  0
   -4.8118   -3.3145    5.0534 N   0  0  0  0  0  0  0  0  0  0  0  0
   -4.9615   -3.5711    3.6278 O   0  0  0  0  0  0  0  0  0  0  0  0
   -5.6082   -1.7701    6.8155 C   0  0  0  0  0  0  0  0  0  0  0  0
   -4.3979   -1.1130    7.1574 O   0  0  0  0  0  0  0  0  0  0  0  0
   -6.9388    2.6236    5.2816 H   0  0  0  0  0  0  0  0  0  0  0  0
   -7.9272    1.4499    4.7104 H   0  0  0  0  0  0  0  0  0  0  0  0
   -7.7073    2.3010    7.5117 H   0  0  0  0  0  0  0  0  0  0  0  0
   -5.9337    0.7620    5.8876 H   0  0  0  0  0  0  0  0  0  0  0  0
   -5.9302    0.9262    7.6167 H   0  0  0  0  0  0  0  0  0  0  0  0
   -6.9081   -0.8285    9.0666 H   0  0  0  0  0  0  0  0  0  0  0  0
   -7.9774   -2.0499    8.3642 H   0  0  0  0  0  0  0  0  0  0  0  0
   -9.6586   -0.6228    8.8019 H   0  0  0  0  0  0  0  0  0  0  0  0
   -8.5822    0.6789    9.1932 H   0  0  0  0  0  0  0  0  0  0  0  0
   -9.1739   -0.0564    6.3277 H   0  0  0  0  0  0  0  0  0  0  0  0
  -10.4726    2.0196    6.0731 H   0  0  0  0  0  0  0  0  0  0  0  0
  -10.8548   -1.4393    7.3516 H   0  0  0  0  0  0  0  0  0  0  0  0
  -12.4017   -1.5000    6.5644 H   0  0  0  0  0  0  0  0  0  0  0  0
  -13.4609   -0.0207    8.0468 H   0  0  0  0  0  0  0  0  0  0  0  0
  -12.5289   -1.1347    9.0584 H   0  0  0  0  0  0  0  0  0  0  0  0
  -14.0997    0.0058   10.2900 H   0  0  0  0  0  0  0  0  0  0  0  0
  -14.9809    0.7417   12.4274 H   0  0  0  0  0  0  0  0  0  0  0  0
  -13.8895    2.5681   13.7101 H   0  0  0  0  0  0  0  0  0  0  0  0
   -9.6978    2.5044   10.4442 H   0  0  0  0  0  0  0  0  0  0  0  0
  -13.1631    2.4417    8.2634 H   0  0  0  0  0  0  0  0  0  0  0  0
  -10.5822    3.5625    7.7814 H   0  0  0  0  0  0  0  0  0  0  0  0
   -7.9772   -0.7936    4.9972 H   0  0  0  0  0  0  0  0  0  0  0  0
   -8.6447   -2.0096    6.1294 H   0  0  0  0  0  0  0  0  0  0  0  0
   -5.3472   -1.3311    4.6967 H   0  0  0  0  0  0  0  0  0  0  0  0
   -3.8418   -3.0260    5.1302 H   0  0  0  0  0  0  0  0  0  0  0  0
   -5.5844   -4.3251    3.6472 H   0  0  0  0  0  0  0  0  0  0  0  0
   -5.7120   -2.6701    7.4239 H   0  0  0  0  0  0  0  0  0  0  0  0
   -4.3313   -1.1056    8.1285 H   0  0  0  0  0  0  0  0  0  0  0  0
  1  2  1  0
  2  3  1  0
  3  4  1  0
  4  5  1  0
  5  6  1  0
  6  7  1  0
  7  8  1  0
  8  9  1  0
  9 10  1  0
 10 11  1  0
 11 12  1  0
 12 13  1  0
 13 14  2  0
 14 15  1  0
 15 16  2  0
 16 17  1  0
 17 18  2  0
 18 19  1  0
 19 20  2  0
 20 21  1  0
 12 22  1  0
 22 23  1  0
 22 24  1  0
  4 25  1  0
 25 26  1  0
 26 27  1  0
 27 28  1  0
 28 29  1  0
 27 30  1  0
 30 31  1  0
  7  2  1  0
 22  8  1  0
 30  4  1  0
 21 13  1  0
 21 17  1  0
  1 32  1  0
  1 33  1  0
  2 34  1  0
  3 35  1  0
  3 36  1  0
  5 37  1  0
  5 38  1  0
  6 39  1  0
  6 40  1  0
  7 41  1  0
  8 42  1  0
 10 43  1  0
 10 44  1  0
 11 45  1  0
 11 46  1  0
 14 47  1  0
 15 48  1  0
 16 49  1  0
 20 50  1  0
 23 51  1  0
 24 52  1  0
 25 53  1  0
 25 54  1  0
 27 55  1  0
 28 56  1  0
 29 57  1  0
 30 58  1  0
 31 59  1  0
M  END
>  <Energy>  (424) 
156.76464756545349

>  <compound_id>  (424) 
4104

>  <target_id>  (424) 
1

>  <reference_id>  (424) 
143

>  <inspiration_ids>  (424) 
[143, 65]

>  <energy_score>  (424) 
-59.435989621709496

>  <distance_score>  (424) 
2.0038613176213778

>  <path>  (424) 
/opt/xchem-fragalysis-2/maxwin/BulkDock/SCRATCH/505735/C4104-P143/C4104-P143.minimised.mol

>  <scratch_subdir>  (424) 
/opt/xchem-fragalysis-2/maxwin/BulkDock/SCRATCH/505735/C4104-P143

>  <fragmenstein_runtime>  (424) 
9.825976371765137

>  <fragmenstein_outcome>  (424) 
too moved

>  <fragmenstein_mode>  (424) 
expansion

>  <fragmenstein_error>  (424) 


$$$$
C4104-P65
     RDKit          3D

 59 63  0  0  0  0  0  0  0  0999 V2000
   -8.0179    2.0195    5.1328 N   0  0  0  0  0  0  0  0  0  0  0  0
   -7.8662    1.8928    6.5677 C   0  0  0  0  0  0  0  0  0  0  0  0
   -6.7572    0.8678    6.8009 C   0  0  0  0  0  0  0  0  0  0  0  0
   -7.3001   -0.5360    7.0519 C   0  0  0  0  0  0  0  0  0  0  0  0
   -8.1794   -0.4994    8.3116 C   0  0  0  0  0  0  0  0  0  0  0  0
   -8.8041    0.8651    8.6455 C   0  0  0  0  0  0  0  0  0  0  0  0
   -9.1890    1.7115    7.4313 C   0  0  0  0  0  0  0  0  0  0  0  0
  -10.5693    1.2401    6.8197 C   0  0  0  0  0  0  0  0  0  0  0  0
  -10.5164   -0.1645    6.5542 O   0  0  0  0  0  0  0  0  0  0  0  0
  -11.5818   -0.9318    7.1038 C   0  0  0  0  0  0  0  0  0  0  0  0
  -11.8694   -0.6133    8.5755 C   0  0  0  0  0  0  0  0  0  0  0  0
  -12.0756    0.8350    8.8529 N   0  0  0  0  0  0  0  0  0  0  0  0
  -12.5808    1.2412   10.1153 C   0  0  0  0  0  0  0  0  0  0  0  0
  -13.6032    0.5871   10.7249 C   0  0  0  0  0  0  0  0  0  0  0  0
  -14.0883    0.9841   12.0375 C   0  0  0  0  0  0  0  0  0  0  0  0
  -13.5451    2.0180   12.7006 C   0  0  0  0  0  0  0  0  0  0  0  0
  -12.4688    2.7261   12.1125 C   0  0  0  0  0  0  0  0  0  0  0  0
  -11.7591    3.7461   12.5437 N   0  0  0  0  0  0  0  0  0  0  0  0
  -10.7799    3.9960   11.6201 N   0  0  0  0  0  0  0  0  0  0  0  0
  -10.9202    3.1197   10.6530 C   0  0  0  0  0  0  0  0  0  0  0  0
  -12.0095    2.3145   10.8610 N   0  0  0  0  0  0  0  0  0  0  0  0
  -11.8526    1.6757    7.6770 C   0  0  0  0  0  0  0  0  0  0  0  0
  -13.0270    1.5704    6.9069 O   0  0  0  0  0  0  0  0  0  0  0  0
  -11.8116    3.0405    7.9963 O   0  0  0  0  0  0  0  0  0  0  0  0
   -8.0543   -1.1648    5.8661 C   0  0  0  0  0  0  0  0  0  0  0  0
   -7.1235   -1.8580    5.0286 O   0  0  0  0  0  0  0  0  0  0  0  0
   -5.8737   -1.8683    5.6853 C   0  0  0  0  0  0  0  0  0  0  0  0
   -5.2350   -3.1581    5.5158 N   0  0  0  0  0  0  0  0  0  0  0  0
   -4.1016   -3.2376    6.4364 O   0  0  0  0  0  0  0  0  0  0  0  0
   -6.1595   -1.5340    7.1508 C   0  0  0  0  0  0  0  0  0  0  0  0
   -4.9669   -1.0605    7.7771 O   0  0  0  0  0  0  0  0  0  0  0  0
   -8.6364    2.7949    4.9034 H   0  0  0  0  0  0  0  0  0  0  0  0
   -7.1276    2.2155    4.6789 H   0  0  0  0  0  0  0  0  0  0  0  0
   -7.4414    2.8539    6.8935 H   0  0  0  0  0  0  0  0  0  0  0  0
   -6.1643    1.2048    7.6575 H   0  0  0  0  0  0  0  0  0  0  0  0
   -6.0380    0.8748    5.9710 H   0  0  0  0  0  0  0  0  0  0  0  0
   -7.5717   -0.8002    9.1596 H   0  0  0  0  0  0  0  0  0  0  0  0
   -8.9578   -1.2668    8.2624 H   0  0  0  0  0  0  0  0  0  0  0  0
   -9.6198    0.7273    9.3527 H   0  0  0  0  0  0  0  0  0  0  0  0
   -8.0967    1.4772    9.2030 H   0  0  0  0  0  0  0  0  0  0  0  0
   -9.3887    2.7319    7.7831 H   0  0  0  0  0  0  0  0  0  0  0  0
  -10.6721    1.7329    5.8452 H   0  0  0  0  0  0  0  0  0  0  0  0
  -11.2991   -1.9857    7.0200 H   0  0  0  0  0  0  0  0  0  0  0  0
  -12.4739   -0.7951    6.4833 H   0  0  0  0  0  0  0  0  0  0  0  0
  -12.7509   -1.1933    8.8652 H   0  0  0  0  0  0  0  0  0  0  0  0
  -11.0367   -0.9504    9.1974 H   0  0  0  0  0  0  0  0  0  0  0  0
  -14.1175   -0.2454   10.2565 H   0  0  0  0  0  0  0  0  0  0  0  0
  -14.9125    0.4238   12.4679 H   0  0  0  0  0  0  0  0  0  0  0  0
  -13.8929    2.3277   13.6806 H   0  0  0  0  0  0  0  0  0  0  0  0
  -10.2699    3.0351    9.8039 H   0  0  0  0  0  0  0  0  0  0  0  0
  -13.6737    1.3268    7.5896 H   0  0  0  0  0  0  0  0  0  0  0  0
  -11.9859    3.4676    7.1417 H   0  0  0  0  0  0  0  0  0  0  0  0
   -8.5820   -0.4563    5.2299 H   0  0  0  0  0  0  0  0  0  0  0  0
   -8.7672   -1.9293    6.1936 H   0  0  0  0  0  0  0  0  0  0  0  0
   -5.2334   -1.1093    5.2204 H   0  0  0  0  0  0  0  0  0  0  0  0
   -5.8668   -3.8761    5.8743 H   0  0  0  0  0  0  0  0  0  0  0  0
   -4.0168   -2.3757    6.9034 H   0  0  0  0  0  0  0  0  0  0  0  0
   -6.5051   -2.4333    7.6651 H   0  0  0  0  0  0  0  0  0  0  0  0
   -5.2217   -0.7172    8.6573 H   0  0  0  0  0  0  0  0  0  0  0  0
  1  2  1  0
  2  3  1  0
  3  4  1  0
  4  5  1  0
  5  6  1  0
  6  7  1  0
  7  8  1  0
  8  9  1  0
  9 10  1  0
 10 11  1  0
 11 12  1  0
 12 13  1  0
 13 14  2  0
 14 15  1  0
 15 16  2  0
 16 17  1  0
 17 18  2  0
 18 19  1  0
 19 20  2  0
 20 21  1  0
 12 22  1  0
 22 23  1  0
 22 24  1  0
  4 25  1  0
 25 26  1  0
 26 27  1  0
 27 28  1  0
 28 29  1  0
 27 30  1  0
 30 31  1  0
  7  2  1  0
 22  8  1  0
 30  4  1  0
 21 13  1  0
 21 17  1  0
  1 32  1  0
  1 33  1  0
  2 34  1  0
  3 35  1  0
  3 36  1  0
  5 37  1  0
  5 38  1  0
  6 39  1  0
  6 40  1  0
  7 41  1  0
  8 42  1  0
 10 43  1  0
 10 44  1  0
 11 45  1  0
 11 46  1  0
 14 47  1  0
 15 48  1  0
 16 49  1  0
 20 50  1  0
 23 51  1  0
 24 52  1  0
 25 53  1  0
 25 54  1  0
 27 55  1  0
 28 56  1  0
 29 57  1  0
 30 58  1  0
 31 59  1  0
M  END
>  <Energy>  (425) 
150.14144004435792

>  <compound_id>  (425) 
4104

>  <target_id>  (425) 
1

>  <reference_id>  (425) 
65

>  <inspiration_ids>  (425) 
[143, 65]

>  <energy_score>  (425) 
-66.05919714280526

>  <distance_score>  (425) 
2.154794790897733

>  <path>  (425) 
/opt/xchem-fragalysis-2/maxwin/BulkDock/SCRATCH/505735/C4104-P65/C4104-P65.minimised.mol

>  <scratch_subdir>  (425) 
/opt/xchem-fragalysis-2/maxwin/BulkDock/SCRATCH/505735/C4104-P65

>  <fragmenstein_runtime>  (425) 
10.29758071899414

>  <fragmenstein_outcome>  (425) 
too moved

>  <fragmenstein_mode>  (425) 
expansion

>  <fragmenstein_error>  (425) 


$$$$
C2741-P143
     RDKit          3D

 70 77  0  0  0  0  0  0  0  0999 V2000
  -15.0454    1.4201    0.7017 C   0  0  0  0  0  0  0  0  0  0  0  0
  -13.4669    1.9717    1.2897 S   0  0  0  0  0  0  0  0  0  0  0  0
  -13.3404    3.3542    0.8638 O   0  0  0  0  0  0  0  0  0  0  0  0
  -12.4059    0.8546    0.9752 N   0  0  0  0  0  0  0  0  0  0  0  0
  -11.0898    0.9804    1.6668 C   0  0  0  0  0  0  0  0  0  0  0  0
  -10.1259    1.8741    1.1936 C   0  0  0  0  0  0  0  0  0  0  0  0
   -8.9925    2.1973    1.9684 C   0  0  0  0  0  0  0  0  0  0  0  0
   -8.8798    1.6565    3.2612 C   0  0  0  0  0  0  0  0  0  0  0  0
   -7.9833    1.9301    4.2760 N   0  0  0  0  0  0  0  0  0  0  0  0
   -8.4793    1.3058    5.3180 C   0  0  0  0  0  0  0  0  0  0  0  0
   -7.9153    1.3956    6.9531 S   0  0  0  0  0  0  0  0  0  0  0  0
   -6.6846    0.2065    6.7087 C   0  0  0  0  0  0  0  0  0  0  0  0
   -5.5912    0.4962    5.9785 C   0  0  0  0  0  0  0  0  0  0  0  0
   -4.6652   -0.5675    5.6148 C   0  0  0  0  0  0  0  0  0  0  0  0
   -4.8936   -1.8452    5.9606 C   0  0  0  0  0  0  0  0  0  0  0  0
   -6.0895   -2.1689    6.6439 C   0  0  0  0  0  0  0  0  0  0  0  0
   -6.6929   -3.3166    6.8702 N   0  0  0  0  0  0  0  0  0  0  0  0
   -7.8683   -3.0465    7.5327 N   0  0  0  0  0  0  0  0  0  0  0  0
   -7.9310   -1.7461    7.7095 C   0  0  0  0  0  0  0  0  0  0  0  0
   -6.9047   -1.1273    7.0547 N   0  0  0  0  0  0  0  0  0  0  0  0
   -9.5045    0.4737    4.9875 N   0  0  0  0  0  0  0  0  0  0  0  0
   -9.8302    0.7296    3.6769 C   0  0  0  0  0  0  0  0  0  0  0  0
  -10.9046    0.3106    2.8838 C   0  0  0  0  0  0  0  0  0  0  0  0
  -13.6214    2.0152    3.0754 C   0  0  0  0  0  0  0  0  0  0  0  0
  -12.8592    2.9586    3.7691 C   0  0  0  0  0  0  0  0  0  0  0  0
  -12.5522    2.7271    5.1083 C   0  0  0  0  0  0  0  0  0  0  0  0
  -13.0043    1.5600    5.7484 C   0  0  0  0  0  0  0  0  0  0  0  0
  -12.3780    1.1384    7.0554 C   0  0  0  0  0  0  0  0  0  0  0  0
  -13.3749    0.8900    8.2074 C   0  0  0  0  0  0  0  0  0  0  0  0
  -12.6203    0.4996    9.4160 N   0  0  0  0  0  0  0  0  0  0  0  0
  -12.8914    1.0587   10.6529 C   0  0  0  0  0  0  0  0  0  0  0  0
  -13.8602    0.5786   11.4583 C   0  0  0  0  0  0  0  0  0  0  0  0
  -14.1140    1.2069   12.7417 C   0  0  0  0  0  0  0  0  0  0  0  0
  -13.4220    2.2907   13.1389 C   0  0  0  0  0  0  0  0  0  0  0  0
  -12.4223    2.8391   12.2917 C   0  0  0  0  0  0  0  0  0  0  0  0
  -11.6419    3.8955   12.3848 N   0  0  0  0  0  0  0  0  0  0  0  0
  -10.8647    3.9543   11.2508 N   0  0  0  0  0  0  0  0  0  0  0  0
  -11.1924    2.9313   10.4960 C   0  0  0  0  0  0  0  0  0  0  0  0
  -12.1816    2.1942   11.0903 N   0  0  0  0  0  0  0  0  0  0  0  0
  -11.4342   -0.3407    9.1795 C   0  0  0  0  0  0  0  0  0  0  0  0
  -11.5461   -0.9942    7.7971 C   0  0  0  0  0  0  0  0  0  0  0  0
  -11.5220    0.0016    6.7616 O   0  0  0  0  0  0  0  0  0  0  0  0
  -13.9030    0.7165    5.0798 C   0  0  0  0  0  0  0  0  0  0  0  0
  -14.2264    0.9522    3.7447 C   0  0  0  0  0  0  0  0  0  0  0  0
  -15.2033    0.3746    0.9667 H   0  0  0  0  0  0  0  0  0  0  0  0
  -15.8252    2.0497    1.1355 H   0  0  0  0  0  0  0  0  0  0  0  0
  -15.0565    1.5265   -0.3857 H   0  0  0  0  0  0  0  0  0  0  0  0
  -10.2800    2.3734    0.2404 H   0  0  0  0  0  0  0  0  0  0  0  0
   -8.2688    2.9249    1.6170 H   0  0  0  0  0  0  0  0  0  0  0  0
   -5.4104    1.4859    5.5668 H   0  0  0  0  0  0  0  0  0  0  0  0
   -3.7994   -0.3027    5.0184 H   0  0  0  0  0  0  0  0  0  0  0  0
   -4.2370   -2.6514    5.6606 H   0  0  0  0  0  0  0  0  0  0  0  0
   -8.6894   -1.2150    8.2585 H   0  0  0  0  0  0  0  0  0  0  0  0
  -10.0792   -0.0522    5.6351 H   0  0  0  0  0  0  0  0  0  0  0  0
  -11.6454   -0.3858    3.2632 H   0  0  0  0  0  0  0  0  0  0  0  0
  -12.3885    3.7888    3.2464 H   0  0  0  0  0  0  0  0  0  0  0  0
  -11.8592    3.4023    5.6078 H   0  0  0  0  0  0  0  0  0  0  0  0
  -11.6927    1.9316    7.3817 H   0  0  0  0  0  0  0  0  0  0  0  0
  -13.9640    1.7972    8.3917 H   0  0  0  0  0  0  0  0  0  0  0  0
  -14.0813    0.0872    7.9655 H   0  0  0  0  0  0  0  0  0  0  0  0
  -14.4633   -0.2746   11.1664 H   0  0  0  0  0  0  0  0  0  0  0  0
  -14.8851    0.7810   13.3744 H   0  0  0  0  0  0  0  0  0  0  0  0
  -13.6078    2.7677   14.0924 H   0  0  0  0  0  0  0  0  0  0  0  0
  -10.7643    2.6901    9.5369 H   0  0  0  0  0  0  0  0  0  0  0  0
  -10.5358    0.2852    9.2161 H   0  0  0  0  0  0  0  0  0  0  0  0
  -11.3552   -1.0893    9.9700 H   0  0  0  0  0  0  0  0  0  0  0  0
  -12.4676   -1.5804    7.6982 H   0  0  0  0  0  0  0  0  0  0  0  0
  -10.7181   -1.6764    7.6063 H   0  0  0  0  0  0  0  0  0  0  0  0
  -14.2555   -0.2054    5.5420 H   0  0  0  0  0  0  0  0  0  0  0  0
  -14.8233    0.2118    3.2237 H   0  0  0  0  0  0  0  0  0  0  0  0
  1  2  1  0
  2  3  2  0
  2  4  2  0
  4  5  1  0
  5  6  2  0
  6  7  1  0
  7  8  2  0
  8  9  1  0
  9 10  2  0
 10 11  1  0
 11 12  1  0
 12 13  2  0
 13 14  1  0
 14 15  2  0
 15 16  1  0
 16 17  2  0
 17 18  1  0
 18 19  2  0
 19 20  1  0
 10 21  1  0
 21 22  1  0
 22 23  2  0
  2 24  1  0
 24 25  2  0
 25 26  1  0
 26 27  2  0
 27 28  1  0
 28 29  1  0
 29 30  1  0
 30 31  1  0
 31 32  2  0
 32 33  1  0
 33 34  2  0
 34 35  1  0
 35 36  2  0
 36 37  1  0
 37 38  2  0
 38 39  1  0
 30 40  1  0
 40 41  1  0
 41 42  1  0
 27 43  1  0
 43 44  2  0
 23  5  1  0
 44 24  1  0
 22  8  1  0
 42 28  1  0
 20 12  1  0
 39 31  1  0
 20 16  1  0
 39 35  1  0
  1 45  1  0
  1 46  1  0
  1 47  1  0
  6 48  1  0
  7 49  1  0
 13 50  1  0
 14 51  1  0
 15 52  1  0
 19 53  1  0
 21 54  1  0
 23 55  1  0
 25 56  1  0
 26 57  1  0
 28 58  1  0
 29 59  1  0
 29 60  1  0
 32 61  1  0
 33 62  1  0
 34 63  1  0
 38 64  1  0
 40 65  1  0
 40 66  1  0
 41 67  1  0
 41 68  1  0
 43 69  1  0
 44 70  1  0
M  END
>  <Energy>  (426) 
190.92686561332621

>  <compound_id>  (426) 
2741

>  <target_id>  (426) 
1

>  <reference_id>  (426) 
143

>  <inspiration_ids>  (426) 
[143, 84]

>  <energy_score>  (426) 
-76.60669854616253

>  <distance_score>  (426) 
1.6314480929154074

>  <path>  (426) 
/opt/xchem-fragalysis-2/maxwin/BulkDock/SCRATCH/505735/C2741-P143/C2741-P143.minimised.mol

>  <scratch_subdir>  (426) 
/opt/xchem-fragalysis-2/maxwin/BulkDock/SCRATCH/505735/C2741-P143

>  <fragmenstein_runtime>  (426) 
9.292309999465942

>  <fragmenstein_outcome>  (426) 
too moved

>  <fragmenstein_mode>  (426) 
expansion

>  <fragmenstein_error>  (426) 


$$$$
C2741-P84
     RDKit          3D

 70 77  0  0  0  0  0  0  0  0999 V2000
  -13.7213    0.9952    0.1305 C   0  0  0  0  0  0  0  0  0  0  0  0
  -12.2790    1.6851    0.8969 S   0  0  0  0  0  0  0  0  0  0  0  0
  -12.2873    3.0996    0.5667 O   0  0  0  0  0  0  0  0  0  0  0  0
  -11.0837    0.7250    0.6211 N   0  0  0  0  0  0  0  0  0  0  0  0
   -9.8894    0.8210    1.4752 C   0  0  0  0  0  0  0  0  0  0  0  0
   -8.9042    1.7794    1.2285 C   0  0  0  0  0  0  0  0  0  0  0  0
   -7.9087    2.0568    2.1877 C   0  0  0  0  0  0  0  0  0  0  0  0
   -7.9919    1.4213    3.4385 C   0  0  0  0  0  0  0  0  0  0  0  0
   -7.2954    1.6419    4.6109 N   0  0  0  0  0  0  0  0  0  0  0  0
   -7.9799    0.9694    5.5054 C   0  0  0  0  0  0  0  0  0  0  0  0
   -7.8753    1.0661    7.2184 S   0  0  0  0  0  0  0  0  0  0  0  0
   -6.4045    0.1843    7.3348 C   0  0  0  0  0  0  0  0  0  0  0  0
   -5.2418    0.8359    7.4919 C   0  0  0  0  0  0  0  0  0  0  0  0
   -4.0204    0.0728    7.7114 C   0  0  0  0  0  0  0  0  0  0  0  0
   -3.9789   -1.2543    7.5146 C   0  0  0  0  0  0  0  0  0  0  0  0
   -5.1764   -1.9283    7.1745 C   0  0  0  0  0  0  0  0  0  0  0  0
   -5.4317   -3.1749    6.8449 N   0  0  0  0  0  0  0  0  0  0  0  0
   -6.7954   -3.3185    6.7482 N   0  0  0  0  0  0  0  0  0  0  0  0
   -7.3307   -2.1464    7.0002 C   0  0  0  0  0  0  0  0  0  0  0  0
   -6.3587   -1.2043    7.1957 N   0  0  0  0  0  0  0  0  0  0  0  0
   -8.9066    0.1436    4.9546 N   0  0  0  0  0  0  0  0  0  0  0  0
   -8.9678    0.4469    3.6217 C   0  0  0  0  0  0  0  0  0  0  0  0
   -9.8588    0.0415    2.6330 C   0  0  0  0  0  0  0  0  0  0  0  0
  -12.6201    1.5929    2.6621 C   0  0  0  0  0  0  0  0  0  0  0  0
  -12.1537    2.6343    3.4696 C   0  0  0  0  0  0  0  0  0  0  0  0
  -12.0478    2.4400    4.8470 C   0  0  0  0  0  0  0  0  0  0  0  0
  -12.4032    1.2089    5.4240 C   0  0  0  0  0  0  0  0  0  0  0  0
  -11.9578    0.8962    6.8377 C   0  0  0  0  0  0  0  0  0  0  0  0
  -13.0801    0.7508    7.8970 C   0  0  0  0  0  0  0  0  0  0  0  0
  -12.4798    0.4521    9.2194 N   0  0  0  0  0  0  0  0  0  0  0  0
  -12.8887    1.0646   10.3978 C   0  0  0  0  0  0  0  0  0  0  0  0
  -13.8243    0.5239   11.2068 C   0  0  0  0  0  0  0  0  0  0  0  0
  -14.1616    1.1697   12.4657 C   0  0  0  0  0  0  0  0  0  0  0  0
  -13.5749    2.3215   12.8433 C   0  0  0  0  0  0  0  0  0  0  0  0
  -12.6065    2.9250   11.9977 C   0  0  0  0  0  0  0  0  0  0  0  0
  -11.9006    4.0327   12.0877 N   0  0  0  0  0  0  0  0  0  0  0  0
  -11.0877    4.1116   10.9801 N   0  0  0  0  0  0  0  0  0  0  0  0
  -11.3214    3.0501   10.2433 C   0  0  0  0  0  0  0  0  0  0  0  0
  -12.2867    2.2685   10.8197 N   0  0  0  0  0  0  0  0  0  0  0  0
  -11.2379   -0.3416    9.1851 C   0  0  0  0  0  0  0  0  0  0  0  0
  -11.1702   -1.1243    7.8733 C   0  0  0  0  0  0  0  0  0  0  0  0
  -11.0817   -0.2581    6.7336 O   0  0  0  0  0  0  0  0  0  0  0  0
  -12.9985    0.2254    4.6149 C   0  0  0  0  0  0  0  0  0  0  0  0
  -13.1093    0.4134    3.2320 C   0  0  0  0  0  0  0  0  0  0  0  0
  -13.7799   -0.0743    0.3380 H   0  0  0  0  0  0  0  0  0  0  0  0
  -14.6059    1.5100    0.5115 H   0  0  0  0  0  0  0  0  0  0  0  0
  -13.6428    1.1569   -0.9472 H   0  0  0  0  0  0  0  0  0  0  0  0
   -8.9383    2.3557    0.3077 H   0  0  0  0  0  0  0  0  0  0  0  0
   -7.1669    2.8280    2.0120 H   0  0  0  0  0  0  0  0  0  0  0  0
   -5.1807    1.9215    7.5154 H   0  0  0  0  0  0  0  0  0  0  0  0
   -3.1375    0.6141    8.0332 H   0  0  0  0  0  0  0  0  0  0  0  0
   -3.0700   -1.8269    7.6561 H   0  0  0  0  0  0  0  0  0  0  0  0
   -8.3837   -1.9334    7.0098 H   0  0  0  0  0  0  0  0  0  0  0  0
   -9.6037   -0.3820    5.4688 H   0  0  0  0  0  0  0  0  0  0  0  0
  -10.6096   -0.7156    2.8232 H   0  0  0  0  0  0  0  0  0  0  0  0
  -11.7655    3.5499    3.0269 H   0  0  0  0  0  0  0  0  0  0  0  0
  -11.5846    3.2220    5.4472 H   0  0  0  0  0  0  0  0  0  0  0  0
  -11.3017    1.7100    7.1734 H   0  0  0  0  0  0  0  0  0  0  0  0
  -13.6731    1.6723    7.9414 H   0  0  0  0  0  0  0  0  0  0  0  0
  -13.7609   -0.0674    7.6332 H   0  0  0  0  0  0  0  0  0  0  0  0
  -14.3217   -0.4055   10.9503 H   0  0  0  0  0  0  0  0  0  0  0  0
  -14.8977    0.6910   13.1037 H   0  0  0  0  0  0  0  0  0  0  0  0
  -13.8102    2.8079   13.7830 H   0  0  0  0  0  0  0  0  0  0  0  0
  -10.8371    2.8066    9.3118 H   0  0  0  0  0  0  0  0  0  0  0  0
  -10.3774    0.3321    9.2591 H   0  0  0  0  0  0  0  0  0  0  0  0
  -11.2108   -1.0186   10.0436 H   0  0  0  0  0  0  0  0  0  0  0  0
  -12.0482   -1.7677    7.7418 H   0  0  0  0  0  0  0  0  0  0  0  0
  -10.2906   -1.7670    7.8644 H   0  0  0  0  0  0  0  0  0  0  0  0
  -13.2599   -0.7449    5.0368 H   0  0  0  0  0  0  0  0  0  0  0  0
  -13.4404   -0.4181    2.6164 H   0  0  0  0  0  0  0  0  0  0  0  0
  1  2  1  0
  2  3  2  0
  2  4  2  0
  4  5  1  0
  5  6  2  0
  6  7  1  0
  7  8  2  0
  8  9  1  0
  9 10  2  0
 10 11  1  0
 11 12  1  0
 12 13  2  0
 13 14  1  0
 14 15  2  0
 15 16  1  0
 16 17  2  0
 17 18  1  0
 18 19  2  0
 19 20  1  0
 10 21  1  0
 21 22  1  0
 22 23  2  0
  2 24  1  0
 24 25  2  0
 25 26  1  0
 26 27  2  0
 27 28  1  0
 28 29  1  0
 29 30  1  0
 30 31  1  0
 31 32  2  0
 32 33  1  0
 33 34  2  0
 34 35  1  0
 35 36  2  0
 36 37  1  0
 37 38  2  0
 38 39  1  0
 30 40  1  0
 40 41  1  0
 41 42  1  0
 27 43  1  0
 43 44  2  0
 23  5  1  0
 44 24  1  0
 22  8  1  0
 42 28  1  0
 20 12  1  0
 39 31  1  0
 20 16  1  0
 39 35  1  0
  1 45  1  0
  1 46  1  0
  1 47  1  0
  6 48  1  0
  7 49  1  0
 13 50  1  0
 14 51  1  0
 15 52  1  0
 19 53  1  0
 21 54  1  0
 23 55  1  0
 25 56  1  0
 26 57  1  0
 28 58  1  0
 29 59  1  0
 29 60  1  0
 32 61  1  0
 33 62  1  0
 34 63  1  0
 38 64  1  0
 40 65  1  0
 40 66  1  0
 41 67  1  0
 41 68  1  0
 43 69  1  0
 44 70  1  0
M  END
>  <Energy>  (427) 
190.0722098398679

>  <compound_id>  (427) 
2741

>  <target_id>  (427) 
1

>  <reference_id>  (427) 
84

>  <inspiration_ids>  (427) 
[143, 84]

>  <energy_score>  (427) 
-77.46135431962307

>  <distance_score>  (427) 
1.3594276909592917

>  <path>  (427) 
/opt/xchem-fragalysis-2/maxwin/BulkDock/SCRATCH/505735/C2741-P84/C2741-P84.minimised.mol

>  <scratch_subdir>  (427) 
/opt/xchem-fragalysis-2/maxwin/BulkDock/SCRATCH/505735/C2741-P84

>  <fragmenstein_runtime>  (427) 
9.511875867843628

>  <fragmenstein_outcome>  (427) 
too moved

>  <fragmenstein_mode>  (427) 
expansion

>  <fragmenstein_error>  (427) 


$$$$
C4107-P143
     RDKit          3D

 66 71  0  0  0  0  0  0  0  0999 V2000
   -8.0261   -4.5524    6.9614 C   0  0  0  0  0  0  0  0  0  0  0  0
   -8.5100   -3.2626    7.5478 C   0  0  0  0  0  0  0  0  0  0  0  0
   -9.7444   -2.4307    6.6033 S   0  0  0  0  0  0  0  0  0  0  0  0
  -10.8228   -3.3511    6.3453 O   0  0  0  0  0  0  0  0  0  0  0  0
   -9.9410   -1.0287    7.2643 N   0  0  0  0  0  0  0  0  0  0  0  0
  -10.1259   -0.9828    8.8646 N   0  0  0  0  0  0  0  0  0  0  0  0
  -10.9255    0.0247    9.4325 C   0  0  0  0  0  0  0  0  0  0  0  0
  -12.3152    0.0468    9.0154 C   0  0  0  0  0  0  0  0  0  0  0  0
  -13.0618    1.1431    9.2279 C   0  0  0  0  0  0  0  0  0  0  0  0
  -14.2864    1.2377    8.4723 N   0  0  0  0  0  0  0  0  0  0  0  0
  -14.8163    0.0871    7.6699 C   0  0  0  0  0  0  0  0  0  0  0  0
  -14.1484    0.1717    6.2956 C   0  0  0  0  0  0  0  0  0  0  0  0
  -14.3172    1.6221    5.8461 C   0  0  0  0  0  0  0  0  0  0  0  0
  -13.3129    2.1367    4.8418 C   0  0  0  0  0  0  0  0  0  0  0  0
  -11.9265    2.0017    5.0257 C   0  0  0  0  0  0  0  0  0  0  0  0
  -11.0284    2.5171    4.0887 C   0  0  0  0  0  0  0  0  0  0  0  0
  -11.4988    3.1570    2.9456 C   0  0  0  0  0  0  0  0  0  0  0  0
  -12.8694    3.2874    2.7402 C   0  0  0  0  0  0  0  0  0  0  0  0
  -13.7698    2.7839    3.6817 C   0  0  0  0  0  0  0  0  0  0  0  0
  -14.2886    2.6181    7.3652 S   0  0  0  0  0  0  0  0  0  0  0  0
  -13.0626    3.3656    7.5276 O   0  0  0  0  0  0  0  0  0  0  0  0
  -15.5814    3.2544    7.5280 O   0  0  0  0  0  0  0  0  0  0  0  0
  -12.5642    2.1374   10.0866 N   0  0  0  0  0  0  0  0  0  0  0  0
  -13.0863    3.3043   10.5700 C   0  0  0  0  0  0  0  0  0  0  0  0
  -12.2379    3.8842   11.3908 N   0  0  0  0  0  0  0  0  0  0  0  0
  -11.1177    3.0935   11.4606 N   0  0  0  0  0  0  0  0  0  0  0  0
  -11.3080    2.0676   10.6603 C   0  0  0  0  0  0  0  0  0  0  0  0
  -10.4658    1.0080   10.2363 C   0  0  0  0  0  0  0  0  0  0  0  0
   -9.1814   -2.1869    5.0288 N   0  0  0  0  0  0  0  0  0  0  0  0
   -7.7840   -2.1398    4.6196 C   0  0  0  0  0  0  0  0  0  0  0  0
   -7.0338   -1.0724    5.3549 C   0  0  0  0  0  0  0  0  0  0  0  0
   -5.9060   -1.2725    6.1807 C   0  0  0  0  0  0  0  0  0  0  0  0
   -5.4536   -0.2289    6.9962 C   0  0  0  0  0  0  0  0  0  0  0  0
   -6.1566    0.9603    6.9582 C   0  0  0  0  0  0  0  0  0  0  0  0
   -7.2307    1.1394    6.1397 C   0  0  0  0  0  0  0  0  0  0  0  0
   -7.6405    0.1789    5.2836 C   0  0  0  0  0  0  0  0  0  0  0  0
   -7.8345    2.3423    6.2589 O   0  0  0  0  0  0  0  0  0  0  0  0
   -7.1036    2.8698    7.3645 C   0  0  0  0  0  0  0  0  0  0  0  0
   -5.8999    2.1098    7.6298 O   0  0  0  0  0  0  0  0  0  0  0  0
   -7.3945   -5.0223    7.7055 H   0  0  0  0  0  0  0  0  0  0  0  0
   -8.8560   -5.2165    6.7196 H   0  0  0  0  0  0  0  0  0  0  0  0
   -7.4093   -4.4401    6.0762 H   0  0  0  0  0  0  0  0  0  0  0  0
   -7.6866   -2.5727    7.7291 H   0  0  0  0  0  0  0  0  0  0  0  0
   -8.9608   -3.4852    8.5124 H   0  0  0  0  0  0  0  0  0  0  0  0
  -10.5580   -1.8883    9.1437 H   0  0  0  0  0  0  0  0  0  0  0  0
  -12.5973   -0.7898    8.3886 H   0  0  0  0  0  0  0  0  0  0  0  0
  -15.9028    0.2114    7.5770 H   0  0  0  0  0  0  0  0  0  0  0  0
  -14.6618   -0.8786    8.1518 H   0  0  0  0  0  0  0  0  0  0  0  0
  -13.0955   -0.1165    6.3526 H   0  0  0  0  0  0  0  0  0  0  0  0
  -14.6196   -0.5161    5.5847 H   0  0  0  0  0  0  0  0  0  0  0  0
  -15.3366    1.7355    5.4537 H   0  0  0  0  0  0  0  0  0  0  0  0
  -11.5199    1.5223    5.9164 H   0  0  0  0  0  0  0  0  0  0  0  0
   -9.9597    2.4333    4.2668 H   0  0  0  0  0  0  0  0  0  0  0  0
  -10.7972    3.5628    2.2225 H   0  0  0  0  0  0  0  0  0  0  0  0
  -13.2400    3.7901    1.8510 H   0  0  0  0  0  0  0  0  0  0  0  0
  -14.8358    2.9060    3.4997 H   0  0  0  0  0  0  0  0  0  0  0  0
  -14.0658    3.6726   10.3037 H   0  0  0  0  0  0  0  0  0  0  0  0
   -9.4150    1.0608   10.4870 H   0  0  0  0  0  0  0  0  0  0  0  0
   -9.7012   -1.3817    4.7034 H   0  0  0  0  0  0  0  0  0  0  0  0
   -7.7483   -1.9098    3.5466 H   0  0  0  0  0  0  0  0  0  0  0  0
   -7.2866   -3.1037    4.7027 H   0  0  0  0  0  0  0  0  0  0  0  0
   -5.4220   -2.2445    6.2286 H   0  0  0  0  0  0  0  0  0  0  0  0
   -4.6000   -0.3584    7.6514 H   0  0  0  0  0  0  0  0  0  0  0  0
   -8.4972    0.3815    4.6497 H   0  0  0  0  0  0  0  0  0  0  0  0
   -6.8160    3.9030    7.1424 H   0  0  0  0  0  0  0  0  0  0  0  0
   -7.7561    2.8644    8.2420 H   0  0  0  0  0  0  0  0  0  0  0  0
  1  2  1  0
  2  3  1  0
  3  4  2  0
  3  5  2  0
  5  6  1  0
  6  7  1  0
  7  8  1  0
  8  9  2  0
  9 10  1  0
 10 11  1  0
 11 12  1  0
 12 13  1  0
 13 14  1  0
 14 15  2  0
 15 16  1  0
 16 17  2  0
 17 18  1  0
 18 19  2  0
 13 20  1  0
 20 21  2  0
 20 22  2  0
  9 23  1  0
 23 24  1  0
 24 25  2  0
 25 26  1  0
 26 27  2  0
 27 28  1  0
  3 29  1  0
 29 30  1  0
 30 31  1  0
 31 32  2  0
 32 33  1  0
 33 34  2  0
 34 35  1  0
 35 36  2  0
 35 37  1  0
 37 38  1  0
 38 39  1  0
 28  7  2  0
 36 31  1  0
 20 10  1  0
 27 23  1  0
 39 34  1  0
 19 14  1  0
  1 40  1  0
  1 41  1  0
  1 42  1  0
  2 43  1  0
  2 44  1  0
  6 45  1  0
  8 46  1  0
 11 47  1  0
 11 48  1  0
 12 49  1  0
 12 50  1  0
 13 51  1  0
 15 52  1  0
 16 53  1  0
 17 54  1  0
 18 55  1  0
 19 56  1  0
 24 57  1  0
 28 58  1  0
 29 59  1  0
 30 60  1  0
 30 61  1  0
 32 62  1  0
 33 63  1  0
 36 64  1  0
 38 65  1  0
 38 66  1  0
M  END
>  <Energy>  (428) 
44.140539594948855

>  <compound_id>  (428) 
4107

>  <target_id>  (428) 
1

>  <reference_id>  (428) 
143

>  <inspiration_ids>  (428) 
[143, 91]

>  <energy_score>  (428) 
-42.148201905415135

>  <distance_score>  (428) 
2.5890467248401845

>  <path>  (428) 
/opt/xchem-fragalysis-2/maxwin/BulkDock/SCRATCH/505735/C4107-P143/C4107-P143.minimised.mol

>  <scratch_subdir>  (428) 
/opt/xchem-fragalysis-2/maxwin/BulkDock/SCRATCH/505735/C4107-P143

>  <fragmenstein_runtime>  (428) 
10.156964540481567

>  <fragmenstein_outcome>  (428) 
too moved

>  <fragmenstein_mode>  (428) 
expansion

>  <fragmenstein_error>  (428) 


$$$$
C4108-P143
     RDKit          3D

 66 71  0  0  0  0  0  0  0  0999 V2000
   -7.3082    3.9956    7.8776 N   0  0  0  0  0  0  0  0  0  0  0  0
   -7.6799    3.1100    6.7813 C   0  0  0  0  0  0  0  0  0  0  0  0
   -8.3149    1.7464    7.1807 C   0  0  0  0  0  0  0  0  0  0  0  0
   -9.5149    1.9076    8.2206 C   0  0  0  0  0  0  0  0  0  0  0  0
  -10.4860    3.1078    8.0222 C   0  0  0  0  0  0  0  0  0  0  0  0
  -11.2945    3.3574    9.3296 C   0  0  0  0  0  0  0  0  0  0  0  0
  -12.4036    4.4043    9.1339 C   0  0  0  0  0  0  0  0  0  0  0  0
  -13.3922    4.4899   10.2985 C   0  0  0  0  0  0  0  0  0  0  0  0
  -13.4058    5.7035   11.1114 N   0  0  0  0  0  0  0  0  0  0  0  0
  -14.1533    5.3446   12.3373 C   0  0  0  0  0  0  0  0  0  0  0  0
  -14.1947    3.8105   12.3860 C   0  0  0  0  0  0  0  0  0  0  0  0
  -13.1276    3.4594   11.3797 C   0  0  0  0  0  0  0  0  0  0  0  0
  -13.0968    2.0946   10.7408 C   0  0  0  0  0  0  0  0  0  0  0  0
  -11.7658    2.0177    9.9659 C   0  0  0  0  0  0  0  0  0  0  0  0
  -11.6891    0.8952    8.9177 C   0  0  0  0  0  0  0  0  0  0  0  0
  -12.0622   -0.3955    9.4557 N   0  0  0  0  0  0  0  0  0  0  0  0
  -10.8852   -0.8843   10.1273 N   0  0  0  0  0  0  0  0  0  0  0  0
   -9.7627   -0.1942    9.5008 C   0  0  0  0  0  0  0  0  0  0  0  0
  -10.3082    0.6848    8.4786 N   0  0  0  0  0  0  0  0  0  0  0  0
   -7.2256    0.7483    7.7289 C   0  0  0  0  0  0  0  0  0  0  0  0
   -7.3116   -0.6419    7.0471 C   0  0  0  0  0  0  0  0  0  0  0  0
   -8.6146   -0.7085    6.2555 C   0  0  0  0  0  0  0  0  0  0  0  0
   -8.7426   -1.7080    5.1484 C   0  0  0  0  0  0  0  0  0  0  0  0
   -7.7785   -1.8756    4.1501 C   0  0  0  0  0  0  0  0  0  0  0  0
   -8.0173   -2.7429    3.0868 C   0  0  0  0  0  0  0  0  0  0  0  0
   -9.2097   -3.4602    3.0217 C   0  0  0  0  0  0  0  0  0  0  0  0
  -10.1512   -3.3418    4.0367 C   0  0  0  0  0  0  0  0  0  0  0  0
   -9.9248   -2.4653    5.0869 C   0  0  0  0  0  0  0  0  0  0  0  0
   -8.7777    0.9469    5.6205 S   0  0  0  0  0  0  0  0  0  0  0  0
  -10.1391    1.2674    5.2661 O   0  0  0  0  0  0  0  0  0  0  0  0
   -7.6877    1.1718    4.6793 O   0  0  0  0  0  0  0  0  0  0  0  0
   -6.8175    4.8162    7.5235 H   0  0  0  0  0  0  0  0  0  0  0  0
   -6.7105    3.5456    8.5661 H   0  0  0  0  0  0  0  0  0  0  0  0
   -6.7747    2.9419    6.1852 H   0  0  0  0  0  0  0  0  0  0  0  0
   -8.3686    3.6585    6.1271 H   0  0  0  0  0  0  0  0  0  0  0  0
   -9.0122    2.1669    9.1596 H   0  0  0  0  0  0  0  0  0  0  0  0
   -9.9496    4.0309    7.7870 H   0  0  0  0  0  0  0  0  0  0  0  0
  -11.1577    2.9228    7.1753 H   0  0  0  0  0  0  0  0  0  0  0  0
  -10.5877    3.8048   10.0459 H   0  0  0  0  0  0  0  0  0  0  0  0
  -11.9575    5.3862    8.9315 H   0  0  0  0  0  0  0  0  0  0  0  0
  -12.9704    4.1510    8.2278 H   0  0  0  0  0  0  0  0  0  0  0  0
  -14.4005    4.3575    9.8769 H   0  0  0  0  0  0  0  0  0  0  0  0
  -13.8612    6.4708   10.6218 H   0  0  0  0  0  0  0  0  0  0  0  0
  -13.6364    5.7565   13.2096 H   0  0  0  0  0  0  0  0  0  0  0  0
  -15.1676    5.7544   12.3127 H   0  0  0  0  0  0  0  0  0  0  0  0
  -15.1772    3.4403   12.0701 H   0  0  0  0  0  0  0  0  0  0  0  0
  -13.9791    3.4170   13.3830 H   0  0  0  0  0  0  0  0  0  0  0  0
  -12.1575    3.6384   11.8727 H   0  0  0  0  0  0  0  0  0  0  0  0
  -13.1370    1.3152   11.5103 H   0  0  0  0  0  0  0  0  0  0  0  0
  -13.9528    1.9440   10.0721 H   0  0  0  0  0  0  0  0  0  0  0  0
  -11.0195    1.8048   10.7491 H   0  0  0  0  0  0  0  0  0  0  0  0
  -12.3412    1.1207    8.0658 H   0  0  0  0  0  0  0  0  0  0  0  0
  -12.8808   -0.3395   10.0564 H   0  0  0  0  0  0  0  0  0  0  0  0
  -10.7766   -1.8834    9.8848 H   0  0  0  0  0  0  0  0  0  0  0  0
   -9.0929   -0.9309    9.0622 H   0  0  0  0  0  0  0  0  0  0  0  0
   -9.2089    0.3479   10.2699 H   0  0  0  0  0  0  0  0  0  0  0  0
   -6.2194    1.1438    7.5426 H   0  0  0  0  0  0  0  0  0  0  0  0
   -7.2942    0.6332    8.8124 H   0  0  0  0  0  0  0  0  0  0  0  0
   -7.2419   -1.4538    7.7787 H   0  0  0  0  0  0  0  0  0  0  0  0
   -6.4396   -0.7533    6.3912 H   0  0  0  0  0  0  0  0  0  0  0  0
   -9.4479   -0.8751    6.9316 H   0  0  0  0  0  0  0  0  0  0  0  0
   -6.8565   -1.2995    4.1546 H   0  0  0  0  0  0  0  0  0  0  0  0
   -7.2791   -2.8411    2.2953 H   0  0  0  0  0  0  0  0  0  0  0  0
   -9.4061   -4.1170    2.1800 H   0  0  0  0  0  0  0  0  0  0  0  0
  -11.0730   -3.9159    4.0131 H   0  0  0  0  0  0  0  0  0  0  0  0
  -10.7030   -2.3597    5.8440 H   0  0  0  0  0  0  0  0  0  0  0  0
  1  2  1  0
  2  3  1  0
  3  4  1  0
  4  5  1  0
  5  6  1  0
  6  7  1  0
  7  8  1  0
  8  9  1  0
  9 10  1  0
 10 11  1  0
 11 12  1  0
 12 13  1  0
 13 14  1  0
 14 15  1  0
 15 16  1  0
 16 17  1  0
 17 18  1  0
 18 19  1  0
  3 20  1  0
 20 21  1  0
 21 22  1  0
 22 23  1  0
 23 24  2  0
 24 25  1  0
 25 26  2  0
 26 27  1  0
 27 28  2  0
 22 29  1  0
 29 30  2  0
 29 31  2  0
 29  3  1  0
 19  4  1  0
 28 23  1  0
 14  6  1  0
 19 15  1  0
 12  8  1  0
  1 32  1  0
  1 33  1  0
  2 34  1  0
  2 35  1  0
  4 36  1  0
  5 37  1  0
  5 38  1  0
  6 39  1  0
  7 40  1  0
  7 41  1  0
  8 42  1  0
  9 43  1  0
 10 44  1  0
 10 45  1  0
 11 46  1  0
 11 47  1  0
 12 48  1  0
 13 49  1  0
 13 50  1  0
 14 51  1  0
 15 52  1  0
 16 53  1  0
 17 54  1  0
 18 55  1  0
 18 56  1  0
 20 57  1  0
 20 58  1  0
 21 59  1  0
 21 60  1  0
 22 61  1  0
 24 62  1  0
 25 63  1  0
 26 64  1  0
 27 65  1  0
 28 66  1  0
M  END
>  <Energy>  (429) 
122.67468434545903

>  <compound_id>  (429) 
4108

>  <target_id>  (429) 
1

>  <reference_id>  (429) 
143

>  <inspiration_ids>  (429) 
[143, 100]

>  <energy_score>  (429) 
-77.20727076671636

>  <distance_score>  (429) 
4.997880719099263

>  <path>  (429) 
/opt/xchem-fragalysis-2/maxwin/BulkDock/SCRATCH/505735/C4108-P143/C4108-P143.minimised.mol

>  <scratch_subdir>  (429) 
/opt/xchem-fragalysis-2/maxwin/BulkDock/SCRATCH/505735/C4108-P143

>  <fragmenstein_runtime>  (429) 
31.356082439422607

>  <fragmenstein_outcome>  (429) 
too moved

>  <fragmenstein_mode>  (429) 
expansion

>  <fragmenstein_error>  (429) 


$$$$
C4108-P100
     RDKit          3D

 66 71  0  0  0  0  0  0  0  0999 V2000
   -6.2786   -0.4113    9.2237 N   0  0  0  0  0  0  0  0  0  0  0  0
   -7.6859   -0.0677    9.1324 C   0  0  0  0  0  0  0  0  0  0  0  0
   -8.5112   -0.7143    7.9995 C   0  0  0  0  0  0  0  0  0  0  0  0
  -10.0921   -0.0461    8.1917 C   0  0  0  0  0  0  0  0  0  0  0  0
  -10.6041   -0.2003    9.7267 C   0  0  0  0  0  0  0  0  0  0  0  0
  -12.0977    0.0792   10.1060 C   0  0  0  0  0  0  0  0  0  0  0  0
  -12.2589    0.6144   11.5606 C   0  0  0  0  0  0  0  0  0  0  0  0
  -11.6561    2.0072   11.6196 C   0  0  0  0  0  0  0  0  0  0  0  0
  -11.5994    2.7439   12.8712 N   0  0  0  0  0  0  0  0  0  0  0  0
  -11.2857    4.1227   12.4369 C   0  0  0  0  0  0  0  0  0  0  0  0
  -11.7946    4.2632   11.0017 C   0  0  0  0  0  0  0  0  0  0  0  0
  -12.4286    2.9217   10.6973 C   0  0  0  0  0  0  0  0  0  0  0  0
  -12.3008    2.4686    9.2526 C   0  0  0  0  0  0  0  0  0  0  0  0
  -12.7432    1.0090    9.0747 C   0  0  0  0  0  0  0  0  0  0  0  0
  -12.4655    0.5336    7.6111 C   0  0  0  0  0  0  0  0  0  0  0  0
  -13.6388   -0.2184    7.1118 N   0  0  0  0  0  0  0  0  0  0  0  0
  -13.1441   -1.5110    6.6915 N   0  0  0  0  0  0  0  0  0  0  0  0
  -11.8601   -1.6514    7.3668 C   0  0  0  0  0  0  0  0  0  0  0  0
  -11.2839   -0.3266    7.3621 N   0  0  0  0  0  0  0  0  0  0  0  0
   -8.6435   -2.2423    7.8267 C   0  0  0  0  0  0  0  0  0  0  0  0
   -8.6105   -2.6300    6.3032 C   0  0  0  0  0  0  0  0  0  0  0  0
   -8.2126   -1.4036    5.4163 C   0  0  0  0  0  0  0  0  0  0  0  0
   -9.3566   -0.5783    4.9046 C   0  0  0  0  0  0  0  0  0  0  0  0
  -10.3676   -1.2803    4.2526 C   0  0  0  0  0  0  0  0  0  0  0  0
  -11.5472   -0.6527    3.8839 C   0  0  0  0  0  0  0  0  0  0  0  0
  -11.7474    0.6914    4.1602 C   0  0  0  0  0  0  0  0  0  0  0  0
  -10.7235    1.4350    4.7157 C   0  0  0  0  0  0  0  0  0  0  0  0
   -9.5199    0.8145    5.0273 C   0  0  0  0  0  0  0  0  0  0  0  0
   -7.2635   -0.5311    6.5808 S   0  0  0  0  0  0  0  0  0  0  0  0
   -6.8834    0.8150    6.2178 O   0  0  0  0  0  0  0  0  0  0  0  0
   -6.1549   -1.4463    6.8754 O   0  0  0  0  0  0  0  0  0  0  0  0
   -5.7273    0.1707    8.5854 H   0  0  0  0  0  0  0  0  0  0  0  0
   -6.1067   -1.3471    8.8353 H   0  0  0  0  0  0  0  0  0  0  0  0
   -8.1130   -0.2369   10.1131 H   0  0  0  0  0  0  0  0  0  0  0  0
   -7.7351    1.0176    8.9856 H   0  0  0  0  0  0  0  0  0  0  0  0
   -9.8951    1.0234    8.0366 H   0  0  0  0  0  0  0  0  0  0  0  0
   -9.9718    0.4782   10.2919 H   0  0  0  0  0  0  0  0  0  0  0  0
  -10.3530   -1.2011   10.0880 H   0  0  0  0  0  0  0  0  0  0  0  0
  -12.6359   -0.8696   10.0682 H   0  0  0  0  0  0  0  0  0  0  0  0
  -13.3226    0.6396   11.8287 H   0  0  0  0  0  0  0  0  0  0  0  0
  -11.7734   -0.0637   12.2670 H   0  0  0  0  0  0  0  0  0  0  0  0
  -10.6145    1.9632   11.2893 H   0  0  0  0  0  0  0  0  0  0  0  0
  -12.5080    2.7690   13.3427 H   0  0  0  0  0  0  0  0  0  0  0  0
  -10.2015    4.2796   12.4744 H   0  0  0  0  0  0  0  0  0  0  0  0
  -11.7463    4.8701   13.0881 H   0  0  0  0  0  0  0  0  0  0  0  0
  -10.9576    4.4834   10.3289 H   0  0  0  0  0  0  0  0  0  0  0  0
  -12.5245    5.0741   10.9075 H   0  0  0  0  0  0  0  0  0  0  0  0
  -13.4908    2.9516   10.9805 H   0  0  0  0  0  0  0  0  0  0  0  0
  -12.9086    3.1210    8.6131 H   0  0  0  0  0  0  0  0  0  0  0  0
  -11.2646    2.5942    8.9168 H   0  0  0  0  0  0  0  0  0  0  0  0
  -13.8259    1.0109    9.2683 H   0  0  0  0  0  0  0  0  0  0  0  0
  -12.3810    1.4213    6.9760 H   0  0  0  0  0  0  0  0  0  0  0  0
  -14.3087   -0.3615    7.8691 H   0  0  0  0  0  0  0  0  0  0  0  0
  -12.9276   -1.4931    5.6942 H   0  0  0  0  0  0  0  0  0  0  0  0
  -11.2705   -2.4125    6.8659 H   0  0  0  0  0  0  0  0  0  0  0  0
  -12.1030   -1.9816    8.3649 H   0  0  0  0  0  0  0  0  0  0  0  0
   -9.5374   -2.6275    8.2792 H   0  0  0  0  0  0  0  0  0  0  0  0
   -7.8261   -2.7651    8.3208 H   0  0  0  0  0  0  0  0  0  0  0  0
   -7.8392   -3.4053    6.1863 H   0  0  0  0  0  0  0  0  0  0  0  0
   -9.5356   -3.1193    5.9939 H   0  0  0  0  0  0  0  0  0  0  0  0
   -7.5772   -1.7077    4.5800 H   0  0  0  0  0  0  0  0  0  0  0  0
  -10.2847   -2.3483    4.0532 H   0  0  0  0  0  0  0  0  0  0  0  0
  -12.3348   -1.2316    3.4065 H   0  0  0  0  0  0  0  0  0  0  0  0
  -12.6931    1.1625    3.9091 H   0  0  0  0  0  0  0  0  0  0  0  0
  -10.8518    2.4996    4.8867 H   0  0  0  0  0  0  0  0  0  0  0  0
   -8.7645    1.4784    5.4259 H   0  0  0  0  0  0  0  0  0  0  0  0
  1  2  1  0
  2  3  1  0
  3  4  1  0
  4  5  1  0
  5  6  1  0
  6  7  1  0
  7  8  1  0
  8  9  1  0
  9 10  1  0
 10 11  1  0
 11 12  1  0
 12 13  1  0
 13 14  1  0
 14 15  1  0
 15 16  1  0
 16 17  1  0
 17 18  1  0
 18 19  1  0
  3 20  1  0
 20 21  1  0
 21 22  1  0
 22 23  1  0
 23 24  2  0
 24 25  1  0
 25 26  2  0
 26 27  1  0
 27 28  2  0
 22 29  1  0
 29 30  2  0
 29 31  2  0
 29  3  1  0
 19  4  1  0
 28 23  1  0
 14  6  1  0
 19 15  1  0
 12  8  1  0
  1 32  1  0
  1 33  1  0
  2 34  1  0
  2 35  1  0
  4 36  1  0
  5 37  1  0
  5 38  1  0
  6 39  1  0
  7 40  1  0
  7 41  1  0
  8 42  1  0
  9 43  1  0
 10 44  1  0
 10 45  1  0
 11 46  1  0
 11 47  1  0
 12 48  1  0
 13 49  1  0
 13 50  1  0
 14 51  1  0
 15 52  1  0
 16 53  1  0
 17 54  1  0
 18 55  1  0
 18 56  1  0
 20 57  1  0
 20 58  1  0
 21 59  1  0
 21 60  1  0
 22 61  1  0
 24 62  1  0
 25 63  1  0
 26 64  1  0
 27 65  1  0
 28 66  1  0
M  END
>  <Energy>  (430) 
194.38650486929475

>  <compound_id>  (430) 
4108

>  <target_id>  (430) 
1

>  <reference_id>  (430) 
100

>  <inspiration_ids>  (430) 
[143, 100]

>  <energy_score>  (430) 
-36.20988682916504

>  <distance_score>  (430) 
3.5820175602568862

>  <path>  (430) 
/opt/xchem-fragalysis-2/maxwin/BulkDock/SCRATCH/505735/C4108-P100/C4108-P100.minimised.mol

>  <scratch_subdir>  (430) 
/opt/xchem-fragalysis-2/maxwin/BulkDock/SCRATCH/505735/C4108-P100

>  <fragmenstein_runtime>  (430) 
16.457343339920044

>  <fragmenstein_outcome>  (430) 
too moved

>  <fragmenstein_mode>  (430) 
expansion

>  <fragmenstein_error>  (430) 


$$$$
C4112-P143
     RDKit          3D

 46 49  0  0  0  0  0  0  0  0999 V2000
  -11.2935    1.2011    6.1628 C   0  0  0  0  0  0  0  0  0  0  0  0
  -11.7288    0.0312    7.0193 C   0  0  0  0  0  0  0  0  0  0  0  0
  -12.6476    0.5512    8.1315 C   0  0  0  0  0  0  0  0  0  0  0  0
  -13.8043    0.8967    7.9468 O   0  0  0  0  0  0  0  0  0  0  0  0
  -11.9744    0.6587    9.3655 N   0  0  0  0  0  0  0  0  0  0  0  0
  -12.4262    1.1553   10.6635 C   0  0  0  0  0  0  0  0  0  0  0  0
  -13.8124    0.5789   11.0177 C   0  0  0  0  0  0  0  0  0  0  0  0
  -14.2371    0.9853   12.4334 C   0  0  0  0  0  0  0  0  0  0  0  0
  -14.1421    2.5031   12.6164 C   0  0  0  0  0  0  0  0  0  0  0  0
  -12.7585    2.9902   12.1734 C   0  0  0  0  0  0  0  0  0  0  0  0
  -12.4022    4.4128   12.2444 N   0  0  0  0  0  0  0  0  0  0  0  0
  -13.7904    5.6486   12.0851 Br  0  0  0  0  0  0  0  0  0  0  0  0
  -11.4496    4.6210   11.1430 N   0  0  0  0  0  0  0  0  0  0  0  0
  -11.2418    3.3015   10.5444 C   0  0  0  0  0  0  0  0  0  0  0  0
  -12.4889    2.6057   10.7810 N   0  0  0  0  0  0  0  0  0  0  0  0
  -10.4137    0.0391    9.3242 S   0  0  0  0  0  0  0  0  0  0  0  0
   -9.5208    1.1759    9.2597 O   0  0  0  0  0  0  0  0  0  0  0  0
  -10.3315   -0.9467   10.3745 O   0  0  0  0  0  0  0  0  0  0  0  0
  -10.6078   -0.7453    7.7289 C   0  0  0  0  0  0  0  0  0  0  0  0
   -9.2347   -0.9990    7.1387 C   0  0  0  0  0  0  0  0  0  0  0  0
   -8.3447    0.0230    6.7695 C   0  0  0  0  0  0  0  0  0  0  0  0
   -7.0437   -0.2663    6.3472 C   0  0  0  0  0  0  0  0  0  0  0  0
   -6.6081   -1.5851    6.2761 C   0  0  0  0  0  0  0  0  0  0  0  0
   -7.4757   -2.6155    6.6214 C   0  0  0  0  0  0  0  0  0  0  0  0
   -8.7727   -2.3246    7.0521 C   0  0  0  0  0  0  0  0  0  0  0  0
  -10.7582    1.9597    6.7431 H   0  0  0  0  0  0  0  0  0  0  0  0
  -10.6633    0.8762    5.3298 H   0  0  0  0  0  0  0  0  0  0  0  0
  -12.1671    1.7014    5.7283 H   0  0  0  0  0  0  0  0  0  0  0  0
  -12.3032   -0.6631    6.3937 H   0  0  0  0  0  0  0  0  0  0  0  0
  -11.7409    0.7746   11.4336 H   0  0  0  0  0  0  0  0  0  0  0  0
  -13.8043   -0.5114   10.9366 H   0  0  0  0  0  0  0  0  0  0  0  0
  -14.5737    0.9371   10.3140 H   0  0  0  0  0  0  0  0  0  0  0  0
  -15.2594    0.6454   12.6320 H   0  0  0  0  0  0  0  0  0  0  0  0
  -13.5846    0.4936   13.1645 H   0  0  0  0  0  0  0  0  0  0  0  0
  -14.9365    2.9698   12.0216 H   0  0  0  0  0  0  0  0  0  0  0  0
  -14.3232    2.7596   13.6665 H   0  0  0  0  0  0  0  0  0  0  0  0
  -12.0348    2.4917   12.8400 H   0  0  0  0  0  0  0  0  0  0  0  0
  -11.9289    5.1845   10.4407 H   0  0  0  0  0  0  0  0  0  0  0  0
  -10.3879    2.8262   11.0426 H   0  0  0  0  0  0  0  0  0  0  0  0
  -11.0206    3.4013    9.4772 H   0  0  0  0  0  0  0  0  0  0  0  0
  -11.0573   -1.7147    7.9584 H   0  0  0  0  0  0  0  0  0  0  0  0
   -8.6226    1.0717    6.8487 H   0  0  0  0  0  0  0  0  0  0  0  0
   -6.3671    0.5434    6.0866 H   0  0  0  0  0  0  0  0  0  0  0  0
   -5.5950   -1.8091    5.9538 H   0  0  0  0  0  0  0  0  0  0  0  0
   -7.1436   -3.6495    6.5673 H   0  0  0  0  0  0  0  0  0  0  0  0
   -9.4151   -3.1528    7.3475 H   0  0  0  0  0  0  0  0  0  0  0  0
  1  2  1  0
  2  3  1  0
  3  4  2  0
  3  5  1  0
  5  6  1  0
  6  7  1  0
  7  8  1  0
  8  9  1  0
  9 10  1  0
 10 11  1  0
 11 12  1  0
 11 13  1  0
 13 14  1  0
 14 15  1  0
  5 16  1  0
 16 17  2  0
 16 18  2  0
 16 19  1  0
 19 20  1  0
 20 21  2  0
 21 22  1  0
 22 23  2  0
 23 24  1  0
 24 25  2  0
 19  2  1  0
 25 20  1  0
 15  6  1  0
 15 10  1  0
  1 26  1  0
  1 27  1  0
  1 28  1  0
  2 29  1  0
  6 30  1  0
  7 31  1  0
  7 32  1  0
  8 33  1  0
  8 34  1  0
  9 35  1  0
  9 36  1  0
 10 37  1  0
 13 38  1  0
 14 39  1  0
 14 40  1  0
 19 41  1  0
 21 42  1  0
 22 43  1  0
 23 44  1  0
 24 45  1  0
 25 46  1  0
M  END
>  <Energy>  (431) 
-102.21651972500236

>  <compound_id>  (431) 
4112

>  <target_id>  (431) 
1

>  <reference_id>  (431) 
143

>  <inspiration_ids>  (431) 
[143, 179]

>  <energy_score>  (431) 
-82.13651772270035

>  <distance_score>  (431) 
0.8001167186642927

>  <path>  (431) 
/opt/xchem-fragalysis-2/maxwin/BulkDock/SCRATCH/505735/C4112-P143/C4112-P143.minimised.mol

>  <scratch_subdir>  (431) 
/opt/xchem-fragalysis-2/maxwin/BulkDock/SCRATCH/505735/C4112-P143

>  <fragmenstein_runtime>  (431) 
1.9060554504394531

>  <fragmenstein_outcome>  (431) 
acceptable

>  <fragmenstein_mode>  (431) 
expansion

>  <fragmenstein_error>  (431) 


$$$$
C4112-P179
     RDKit          3D

 46 49  0  0  0  0  0  0  0  0999 V2000
  -11.2676    1.2211    6.1627 C   0  0  0  0  0  0  0  0  0  0  0  0
  -11.7169    0.0466    7.0058 C   0  0  0  0  0  0  0  0  0  0  0  0
  -12.6476    0.5613    8.1098 C   0  0  0  0  0  0  0  0  0  0  0  0
  -13.8054    0.8970    7.9101 O   0  0  0  0  0  0  0  0  0  0  0  0
  -11.9840    0.6752    9.3473 N   0  0  0  0  0  0  0  0  0  0  0  0
  -12.4430    1.1688   10.6445 C   0  0  0  0  0  0  0  0  0  0  0  0
  -13.8359    0.6019   10.9867 C   0  0  0  0  0  0  0  0  0  0  0  0
  -14.2640    1.0025   12.4031 C   0  0  0  0  0  0  0  0  0  0  0  0
  -14.1552    2.5184   12.5972 C   0  0  0  0  0  0  0  0  0  0  0  0
  -12.7651    2.9974   12.1640 C   0  0  0  0  0  0  0  0  0  0  0  0
  -12.3959    4.4176   12.2440 N   0  0  0  0  0  0  0  0  0  0  0  0
  -13.7737    5.6677   12.1229 Br  0  0  0  0  0  0  0  0  0  0  0  0
  -11.4564    4.6308   11.1323 N   0  0  0  0  0  0  0  0  0  0  0  0
  -11.2454    3.3089   10.5386 C   0  0  0  0  0  0  0  0  0  0  0  0
  -12.4978    2.6199   10.7677 N   0  0  0  0  0  0  0  0  0  0  0  0
  -10.4238    0.0456    9.3211 S   0  0  0  0  0  0  0  0  0  0  0  0
   -9.5278    1.1804    9.2646 O   0  0  0  0  0  0  0  0  0  0  0  0
  -10.3634   -0.9418   10.3706 O   0  0  0  0  0  0  0  0  0  0  0  0
  -10.6077   -0.7360    7.7245 C   0  0  0  0  0  0  0  0  0  0  0  0
   -9.2359   -0.9984    7.1365 C   0  0  0  0  0  0  0  0  0  0  0  0
   -8.3305    0.0173    6.7878 C   0  0  0  0  0  0  0  0  0  0  0  0
   -7.0325   -0.2830    6.3636 C   0  0  0  0  0  0  0  0  0  0  0  0
   -6.6161   -1.6065    6.2685 C   0  0  0  0  0  0  0  0  0  0  0  0
   -7.4994   -2.6304    6.5930 C   0  0  0  0  0  0  0  0  0  0  0  0
   -8.7930   -2.3288    7.0263 C   0  0  0  0  0  0  0  0  0  0  0  0
  -10.7340    1.9726    6.7537 H   0  0  0  0  0  0  0  0  0  0  0  0
  -10.6303    0.8996    5.3337 H   0  0  0  0  0  0  0  0  0  0  0  0
  -12.1342    1.7290    5.7233 H   0  0  0  0  0  0  0  0  0  0  0  0
  -12.2850   -0.6419    6.3683 H   0  0  0  0  0  0  0  0  0  0  0  0
  -11.7673    0.7805   11.4183 H   0  0  0  0  0  0  0  0  0  0  0  0
  -13.8384   -0.4879   10.8987 H   0  0  0  0  0  0  0  0  0  0  0  0
  -14.5896    0.9721   10.2810 H   0  0  0  0  0  0  0  0  0  0  0  0
  -15.2908    0.6716   12.5936 H   0  0  0  0  0  0  0  0  0  0  0  0
  -13.6209    0.4982   13.1343 H   0  0  0  0  0  0  0  0  0  0  0  0
  -14.9423    2.9967   12.0015 H   0  0  0  0  0  0  0  0  0  0  0  0
  -14.3405    2.7688   13.6478 H   0  0  0  0  0  0  0  0  0  0  0  0
  -12.0472    2.4880   12.8282 H   0  0  0  0  0  0  0  0  0  0  0  0
  -11.9507    5.1824   10.4310 H   0  0  0  0  0  0  0  0  0  0  0  0
  -10.3956    2.8327   11.0425 H   0  0  0  0  0  0  0  0  0  0  0  0
  -11.0174    3.4072    9.4726 H   0  0  0  0  0  0  0  0  0  0  0  0
  -11.0657   -1.7022    7.9481 H   0  0  0  0  0  0  0  0  0  0  0  0
   -8.5922    1.0684    6.8877 H   0  0  0  0  0  0  0  0  0  0  0  0
   -6.3415    0.5215    6.1256 H   0  0  0  0  0  0  0  0  0  0  0  0
   -5.6046   -1.8413    5.9484 H   0  0  0  0  0  0  0  0  0  0  0  0
   -7.1809   -3.6684    6.5240 H   0  0  0  0  0  0  0  0  0  0  0  0
   -9.4456   -3.1546    7.3070 H   0  0  0  0  0  0  0  0  0  0  0  0
  1  2  1  0
  2  3  1  0
  3  4  2  0
  3  5  1  0
  5  6  1  0
  6  7  1  0
  7  8  1  0
  8  9  1  0
  9 10  1  0
 10 11  1  0
 11 12  1  0
 11 13  1  0
 13 14  1  0
 14 15  1  0
  5 16  1  0
 16 17  2  0
 16 18  2  0
 16 19  1  0
 19 20  1  0
 20 21  2  0
 21 22  1  0
 22 23  2  0
 23 24  1  0
 24 25  2  0
 19  2  1  0
 25 20  1  0
 15  6  1  0
 15 10  1  0
  1 26  1  0
  1 27  1  0
  1 28  1  0
  2 29  1  0
  6 30  1  0
  7 31  1  0
  7 32  1  0
  8 33  1  0
  8 34  1  0
  9 35  1  0
  9 36  1  0
 10 37  1  0
 13 38  1  0
 14 39  1  0
 14 40  1  0
 19 41  1  0
 21 42  1  0
 22 43  1  0
 23 44  1  0
 24 45  1  0
 25 46  1  0
M  END
>  <Energy>  (432) 
-102.20174865792106

>  <compound_id>  (432) 
4112

>  <target_id>  (432) 
1

>  <reference_id>  (432) 
179

>  <inspiration_ids>  (432) 
[143, 179]

>  <energy_score>  (432) 
-82.12174665561976

>  <distance_score>  (432) 
0.8016643225118681

>  <path>  (432) 
/opt/xchem-fragalysis-2/maxwin/BulkDock/SCRATCH/505735/C4112-P179/C4112-P179.minimised.mol

>  <scratch_subdir>  (432) 
/opt/xchem-fragalysis-2/maxwin/BulkDock/SCRATCH/505735/C4112-P179

>  <fragmenstein_runtime>  (432) 
1.8524584770202637

>  <fragmenstein_outcome>  (432) 
acceptable

>  <fragmenstein_mode>  (432) 
expansion

>  <fragmenstein_error>  (432) 


$$$$
C117-P143
     RDKit          3D

 36 39  0  0  0  0  0  0  0  0999 V2000
  -10.4269    1.8089    7.5484 O   0  0  0  0  0  0  0  0  0  0  0  0
  -10.5051    0.8848    8.6594 S   0  0  0  0  0  0  0  0  0  0  0  0
   -9.7750    1.0713    9.8908 O   0  0  0  0  0  0  0  0  0  0  0  0
  -10.3035   -0.7772    8.0786 C   0  0  0  0  0  0  0  0  0  0  0  0
   -8.9956   -1.0507    7.3682 C   0  0  0  0  0  0  0  0  0  0  0  0
   -7.9850   -0.1012    7.1415 C   0  0  0  0  0  0  0  0  0  0  0  0
   -6.7534   -0.4703    6.5921 C   0  0  0  0  0  0  0  0  0  0  0  0
   -6.5027   -1.7974    6.2638 C   0  0  0  0  0  0  0  0  0  0  0  0
   -7.4879   -2.7560    6.4743 C   0  0  0  0  0  0  0  0  0  0  0  0
   -8.7192   -2.3854    7.0198 C   0  0  0  0  0  0  0  0  0  0  0  0
  -11.6219   -0.9978    7.3327 C   0  0  0  0  0  0  0  0  0  0  0  0
  -12.7140   -0.4956    8.2992 C   0  0  0  0  0  0  0  0  0  0  0  0
  -12.1821    0.7089    8.9960 N   0  0  0  0  0  0  0  0  0  0  0  0
  -12.6382    1.2639   10.2446 C   0  0  0  0  0  0  0  0  0  0  0  0
  -13.5183    0.5365   10.9645 C   0  0  0  0  0  0  0  0  0  0  0  0
  -13.9484    1.0140   12.2746 C   0  0  0  0  0  0  0  0  0  0  0  0
  -13.5085    2.1808   12.7792 C   0  0  0  0  0  0  0  0  0  0  0  0
  -12.6483    2.9965   12.0007 C   0  0  0  0  0  0  0  0  0  0  0  0
  -12.1566    4.1989   12.2020 N   0  0  0  0  0  0  0  0  0  0  0  0
  -11.4387    4.5533   11.0893 N   0  0  0  0  0  0  0  0  0  0  0  0
  -11.5149    3.5582   10.2353 C   0  0  0  0  0  0  0  0  0  0  0  0
  -12.2413    2.5196   10.7597 N   0  0  0  0  0  0  0  0  0  0  0  0
  -10.2799   -1.3596    9.0049 H   0  0  0  0  0  0  0  0  0  0  0  0
   -8.1031    0.9479    7.4028 H   0  0  0  0  0  0  0  0  0  0  0  0
   -5.9850    0.2821    6.4340 H   0  0  0  0  0  0  0  0  0  0  0  0
   -5.5421   -2.0841    5.8455 H   0  0  0  0  0  0  0  0  0  0  0  0
   -7.3002   -3.7967    6.2205 H   0  0  0  0  0  0  0  0  0  0  0  0
   -9.4609   -3.1613    7.2011 H   0  0  0  0  0  0  0  0  0  0  0  0
  -11.6448   -0.4140    6.4037 H   0  0  0  0  0  0  0  0  0  0  0  0
  -11.7846   -2.0463    7.0637 H   0  0  0  0  0  0  0  0  0  0  0  0
  -13.6292   -0.2481    7.7539 H   0  0  0  0  0  0  0  0  0  0  0  0
  -12.9245   -1.2928    9.0130 H   0  0  0  0  0  0  0  0  0  0  0  0
  -13.9249   -0.4154   10.6523 H   0  0  0  0  0  0  0  0  0  0  0  0
  -14.6236    0.3887   12.8491 H   0  0  0  0  0  0  0  0  0  0  0  0
  -13.8002    2.5400   13.7604 H   0  0  0  0  0  0  0  0  0  0  0  0
  -11.0849    3.5622    9.2469 H   0  0  0  0  0  0  0  0  0  0  0  0
  1  2  2  0
  2  3  2  0
  2  4  1  0
  4  5  1  0
  5  6  2  0
  6  7  1  0
  7  8  2  0
  8  9  1  0
  9 10  2  0
  4 11  1  0
 11 12  1  0
 12 13  1  0
 13 14  1  0
 14 15  2  0
 15 16  1  0
 16 17  2  0
 17 18  1  0
 18 19  2  0
 19 20  1  0
 20 21  2  0
 21 22  1  0
 13  2  1  0
 22 14  1  0
 10  5  1  0
 22 18  1  0
  4 23  1  0
  6 24  1  0
  7 25  1  0
  8 26  1  0
  9 27  1  0
 10 28  1  0
 11 29  1  0
 11 30  1  0
 12 31  1  0
 12 32  1  0
 15 33  1  0
 16 34  1  0
 17 35  1  0
 21 36  1  0
M  END
>  <Energy>  (433) 
62.926713340886771

>  <compound_id>  (433) 
117

>  <target_id>  (433) 
1

>  <reference_id>  (433) 
143

>  <inspiration_ids>  (433) 
[143, 181]

>  <energy_score>  (433) 
-36.203252439339366

>  <distance_score>  (433) 
0.7993646308001798

>  <path>  (433) 
/opt/xchem-fragalysis-2/maxwin/BulkDock/SCRATCH/505735/C117-P143/C117-P143.minimised.mol

>  <scratch_subdir>  (433) 
/opt/xchem-fragalysis-2/maxwin/BulkDock/SCRATCH/505735/C117-P143

>  <fragmenstein_runtime>  (433) 
1.6781084537506104

>  <fragmenstein_outcome>  (433) 
acceptable

>  <fragmenstein_mode>  (433) 
expansion

>  <fragmenstein_error>  (433) 


$$$$
C117-P181
     RDKit          3D

 36 39  0  0  0  0  0  0  0  0999 V2000
  -10.4640    1.8630    7.4965 O   0  0  0  0  0  0  0  0  0  0  0  0
  -10.5179    0.9458    8.6142 S   0  0  0  0  0  0  0  0  0  0  0  0
   -9.7880    1.1551    9.8412 O   0  0  0  0  0  0  0  0  0  0  0  0
  -10.2884   -0.7146    8.0471 C   0  0  0  0  0  0  0  0  0  0  0  0
   -8.9756   -0.9823    7.3463 C   0  0  0  0  0  0  0  0  0  0  0  0
   -7.9771   -0.0235    7.1115 C   0  0  0  0  0  0  0  0  0  0  0  0
   -6.7365   -0.3859    6.5783 C   0  0  0  0  0  0  0  0  0  0  0  0
   -6.4660   -1.7150    6.2734 C   0  0  0  0  0  0  0  0  0  0  0  0
   -7.4397   -2.6831    6.4921 C   0  0  0  0  0  0  0  0  0  0  0  0
   -8.6795   -2.3194    7.0222 C   0  0  0  0  0  0  0  0  0  0  0  0
  -11.6024   -0.9662    7.3041 C   0  0  0  0  0  0  0  0  0  0  0  0
  -12.7059   -0.4708    8.2620 C   0  0  0  0  0  0  0  0  0  0  0  0
  -12.1901    0.7394    8.9611 N   0  0  0  0  0  0  0  0  0  0  0  0
  -12.6541    1.2845   10.2118 C   0  0  0  0  0  0  0  0  0  0  0  0
  -13.5401    0.5499   10.9175 C   0  0  0  0  0  0  0  0  0  0  0  0
  -13.9872    1.0163   12.2254 C   0  0  0  0  0  0  0  0  0  0  0  0
  -13.5580    2.1816   12.7419 C   0  0  0  0  0  0  0  0  0  0  0  0
  -12.6906    3.0052   11.9797 C   0  0  0  0  0  0  0  0  0  0  0  0
  -12.2071    4.2086   12.1954 N   0  0  0  0  0  0  0  0  0  0  0  0
  -11.4786    4.5745   11.0937 N   0  0  0  0  0  0  0  0  0  0  0  0
  -11.5400    3.5850   10.2318 C   0  0  0  0  0  0  0  0  0  0  0  0
  -12.2668    2.5385   10.7401 N   0  0  0  0  0  0  0  0  0  0  0  0
  -10.2511   -1.2804    8.9815 H   0  0  0  0  0  0  0  0  0  0  0  0
   -8.1116    1.0282    7.3542 H   0  0  0  0  0  0  0  0  0  0  0  0
   -5.9785    0.3755    6.4138 H   0  0  0  0  0  0  0  0  0  0  0  0
   -5.5003   -1.9965    5.8636 H   0  0  0  0  0  0  0  0  0  0  0  0
   -7.2363   -3.7241    6.2520 H   0  0  0  0  0  0  0  0  0  0  0  0
   -9.4114   -3.1014    7.2103 H   0  0  0  0  0  0  0  0  0  0  0  0
  -11.6337   -0.3941    6.3682 H   0  0  0  0  0  0  0  0  0  0  0  0
  -11.7473   -2.0202    7.0464 H   0  0  0  0  0  0  0  0  0  0  0  0
  -13.6182   -0.2309    7.7084 H   0  0  0  0  0  0  0  0  0  0  0  0
  -12.9189   -1.2686    8.9747 H   0  0  0  0  0  0  0  0  0  0  0  0
  -13.9443   -0.3987   10.5925 H   0  0  0  0  0  0  0  0  0  0  0  0
  -14.6697    0.3866   12.7863 H   0  0  0  0  0  0  0  0  0  0  0  0
  -13.8655    2.5351   13.7200 H   0  0  0  0  0  0  0  0  0  0  0  0
  -11.0981    3.5990    9.2487 H   0  0  0  0  0  0  0  0  0  0  0  0
  1  2  2  0
  2  3  2  0
  2  4  1  0
  4  5  1  0
  5  6  2  0
  6  7  1  0
  7  8  2  0
  8  9  1  0
  9 10  2  0
  4 11  1  0
 11 12  1  0
 12 13  1  0
 13 14  1  0
 14 15  2  0
 15 16  1  0
 16 17  2  0
 17 18  1  0
 18 19  2  0
 19 20  1  0
 20 21  2  0
 21 22  1  0
 13  2  1  0
 22 14  1  0
 10  5  1  0
 22 18  1  0
  4 23  1  0
  6 24  1  0
  7 25  1  0
  8 26  1  0
  9 27  1  0
 10 28  1  0
 11 29  1  0
 11 30  1  0
 12 31  1  0
 12 32  1  0
 15 33  1  0
 16 34  1  0
 17 35  1  0
 21 36  1  0
M  END
>  <Energy>  (434) 
63.233726820766613

>  <compound_id>  (434) 
117

>  <target_id>  (434) 
1

>  <reference_id>  (434) 
181

>  <inspiration_ids>  (434) 
[143, 181]

>  <energy_score>  (434) 
-35.89623895945917

>  <distance_score>  (434) 
0.7980143272110841

>  <path>  (434) 
/opt/xchem-fragalysis-2/maxwin/BulkDock/SCRATCH/505735/C117-P181/C117-P181.minimised.mol

>  <scratch_subdir>  (434) 
/opt/xchem-fragalysis-2/maxwin/BulkDock/SCRATCH/505735/C117-P181

>  <fragmenstein_runtime>  (434) 
1.7676305770874023

>  <fragmenstein_outcome>  (434) 
acceptable

>  <fragmenstein_mode>  (434) 
expansion

>  <fragmenstein_error>  (434) 


$$$$
C4114-P144
     RDKit          3D

 63 67  0  0  0  0  0  0  0  0999 V2000
    2.3244    1.1601   29.3043 C   0  0  0  0  0  0  0  0  0  0  0  0
    1.9154    1.3064   31.0339 S   0  0  0  0  0  0  0  0  0  0  0  0
    3.0252    1.9493   31.7025 O   0  0  0  0  0  0  0  0  0  0  0  0
    0.5677    1.8100   31.1701 O   0  0  0  0  0  0  0  0  0  0  0  0
    1.9526   -0.2798   31.5709 N   0  0  0  0  0  0  0  0  0  0  0  0
    1.1423   -1.3758   31.0006 C   0  0  0  0  0  0  0  0  0  0  0  0
   -0.3016   -0.9591   30.7105 C   0  0  0  0  0  0  0  0  0  0  0  0
   -1.2009   -2.1501   30.4197 C   0  0  0  0  0  0  0  0  0  0  0  0
   -1.0877   -3.2549   31.4907 C   0  0  0  0  0  0  0  0  0  0  0  0
    0.3476   -3.8153   31.7272 C   0  0  0  0  0  0  0  0  0  0  0  0
    0.9020   -4.4155   30.4037 C   0  0  0  0  0  0  0  0  0  0  0  0
    0.1991   -5.6750   29.9250 C   0  0  0  0  0  0  0  0  0  0  0  0
   -0.4957   -6.4816   30.9489 C   0  0  0  0  0  0  0  0  0  0  0  0
   -1.2940   -7.4957   30.7150 N   0  0  0  0  0  0  0  0  0  0  0  0
   -1.7881   -7.9088   31.9124 N   0  0  0  0  0  0  0  0  0  0  0  0
   -1.2607   -7.1677   32.8606 C   0  0  0  0  0  0  0  0  0  0  0  0
   -1.4477   -7.3981   34.1781 N   0  0  0  0  0  0  0  0  0  0  0  0
   -0.4417   -6.2197   32.3016 N   0  0  0  0  0  0  0  0  0  0  0  0
    0.4467   -5.1328   32.7746 C   0  0  0  0  0  0  0  0  0  0  0  0
    0.7144   -4.9098   34.2271 N   0  0  0  0  0  0  0  0  0  0  0  0
   -0.2912   -4.2439   35.0738 C   0  0  0  0  0  0  0  0  0  0  0  0
    0.1478   -4.4616   36.5389 C   0  0  0  0  0  0  0  0  0  0  0  0
    0.4979   -5.9451   36.6262 C   0  0  0  0  0  0  0  0  0  0  0  0
    1.0531   -6.5113   37.9179 C   0  0  0  0  0  0  0  0  0  0  0  0
    2.2883   -7.1587   38.0691 C   0  0  0  0  0  0  0  0  0  0  0  0
    2.6407   -7.7793   39.2765 C   0  0  0  0  0  0  0  0  0  0  0  0
    1.7649   -7.7721   40.3568 C   0  0  0  0  0  0  0  0  0  0  0  0
    0.5411   -7.1263   40.2383 C   0  0  0  0  0  0  0  0  0  0  0  0
    0.1951   -6.4984   39.0380 C   0  0  0  0  0  0  0  0  0  0  0  0
    1.4710   -6.2055   35.1384 S   0  0  0  0  0  0  0  0  0  0  0  0
    2.8556   -5.8326   35.2885 O   0  0  0  0  0  0  0  0  0  0  0  0
    1.1371   -7.4965   34.5764 O   0  0  0  0  0  0  0  0  0  0  0  0
    1.2235   -2.5601   32.0427 C   0  0  0  0  0  0  0  0  0  0  0  0
    2.4021    2.1698   28.8947 H   0  0  0  0  0  0  0  0  0  0  0  0
    3.2846    0.6493   29.2117 H   0  0  0  0  0  0  0  0  0  0  0  0
    1.5367    0.6138   28.7853 H   0  0  0  0  0  0  0  0  0  0  0  0
    2.8847   -0.5301   31.9075 H   0  0  0  0  0  0  0  0  0  0  0  0
    1.6304   -1.6955   30.0734 H   0  0  0  0  0  0  0  0  0  0  0  0
   -0.7106   -0.4310   31.5816 H   0  0  0  0  0  0  0  0  0  0  0  0
   -0.3515   -0.2658   29.8647 H   0  0  0  0  0  0  0  0  0  0  0  0
   -2.2371   -1.8056   30.4028 H   0  0  0  0  0  0  0  0  0  0  0  0
   -0.9874   -2.5560   29.4254 H   0  0  0  0  0  0  0  0  0  0  0  0
   -1.7640   -4.0574   31.2118 H   0  0  0  0  0  0  0  0  0  0  0  0
   -1.4681   -2.8619   32.4426 H   0  0  0  0  0  0  0  0  0  0  0  0
    0.9018   -3.6969   29.5778 H   0  0  0  0  0  0  0  0  0  0  0  0
    1.9658   -4.6492   30.5476 H   0  0  0  0  0  0  0  0  0  0  0  0
    0.9592   -6.3075   29.4684 H   0  0  0  0  0  0  0  0  0  0  0  0
   -0.5243   -5.3952   29.1538 H   0  0  0  0  0  0  0  0  0  0  0  0
   -0.5896   -7.7972   34.5792 H   0  0  0  0  0  0  0  0  0  0  0  0
   -2.0893   -8.1924   34.2812 H   0  0  0  0  0  0  0  0  0  0  0  0
    1.4296   -5.5514   32.4933 H   0  0  0  0  0  0  0  0  0  0  0  0
   -1.2553   -4.7089   34.9111 H   0  0  0  0  0  0  0  0  0  0  0  0
   -0.3506   -3.1773   34.8460 H   0  0  0  0  0  0  0  0  0  0  0  0
    1.0263   -3.8449   36.7657 H   0  0  0  0  0  0  0  0  0  0  0  0
   -0.6510   -4.1796   37.2320 H   0  0  0  0  0  0  0  0  0  0  0  0
   -0.4243   -6.5129   36.4427 H   0  0  0  0  0  0  0  0  0  0  0  0
    3.0082   -7.2300   37.2586 H   0  0  0  0  0  0  0  0  0  0  0  0
    3.6008   -8.2824   39.3619 H   0  0  0  0  0  0  0  0  0  0  0  0
    2.0365   -8.2651   41.2856 H   0  0  0  0  0  0  0  0  0  0  0  0
   -0.1519   -7.1150   41.0757 H   0  0  0  0  0  0  0  0  0  0  0  0
   -0.7841   -6.0241   38.9765 H   0  0  0  0  0  0  0  0  0  0  0  0
    0.9285   -2.1727   33.0272 H   0  0  0  0  0  0  0  0  0  0  0  0
    2.2725   -2.8677   32.1498 H   0  0  0  0  0  0  0  0  0  0  0  0
  1  2  1  0
  2  3  2  0
  2  4  2  0
  2  5  1  0
  5  6  1  0
  6  7  1  0
  7  8  1  0
  8  9  1  0
  9 10  1  0
 10 11  1  0
 11 12  1  0
 12 13  1  0
 13 14  2  0
 14 15  1  0
 15 16  2  0
 16 17  1  0
 16 18  1  0
 18 19  1  0
 19 20  1  0
 20 21  1  0
 21 22  1  0
 22 23  1  0
 23 24  1  0
 24 25  2  0
 25 26  1  0
 26 27  2  0
 27 28  1  0
 28 29  2  0
 23 30  1  0
 30 31  2  0
 30 32  2  0
 10 33  1  0
 33  6  1  0
 19 10  1  0
 30 20  1  0
 18 13  1  0
 29 24  1  0
  1 34  1  0
  1 35  1  0
  1 36  1  0
  5 37  1  0
  6 38  1  0
  7 39  1  0
  7 40  1  0
  8 41  1  0
  8 42  1  0
  9 43  1  0
  9 44  1  0
 11 45  1  0
 11 46  1  0
 12 47  1  0
 12 48  1  0
 17 49  1  0
 17 50  1  0
 19 51  1  0
 21 52  1  0
 21 53  1  0
 22 54  1  0
 22 55  1  0
 23 56  1  0
 25 57  1  0
 26 58  1  0
 27 59  1  0
 28 60  1  0
 29 61  1  0
 33 62  1  0
 33 63  1  0
M  END
>  <Energy>  (435) 
-43.248973034750804

>  <compound_id>  (435) 
4114

>  <target_id>  (435) 
1

>  <reference_id>  (435) 
144

>  <inspiration_ids>  (435) 
[144, 13]

>  <energy_score>  (435) 
-50.11692885633002

>  <distance_score>  (435) 
2.720492948292582

>  <path>  (435) 
/opt/xchem-fragalysis-2/maxwin/BulkDock/SCRATCH/505735/C4114-P144/C4114-P144.minimised.mol

>  <scratch_subdir>  (435) 
/opt/xchem-fragalysis-2/maxwin/BulkDock/SCRATCH/505735/C4114-P144

>  <fragmenstein_runtime>  (435) 
28.020440578460693

>  <fragmenstein_outcome>  (435) 
too moved

>  <fragmenstein_mode>  (435) 
expansion

>  <fragmenstein_error>  (435) 


$$$$
C4114-P13
     RDKit          3D

 63 67  0  0  0  0  0  0  0  0999 V2000
    2.1901    1.4148   29.6839 C   0  0  0  0  0  0  0  0  0  0  0  0
    1.6585    1.4418   31.3856 S   0  0  0  0  0  0  0  0  0  0  0  0
    2.6752    2.1196   32.1595 O   0  0  0  0  0  0  0  0  0  0  0  0
    0.2734    1.8457   31.4552 O   0  0  0  0  0  0  0  0  0  0  0  0
    1.7698   -0.1618   31.8472 N   0  0  0  0  0  0  0  0  0  0  0  0
    1.0677   -1.2847   31.1928 C   0  0  0  0  0  0  0  0  0  0  0  0
   -0.3654   -0.9429   30.7714 C   0  0  0  0  0  0  0  0  0  0  0  0
   -1.1565   -2.1805   30.3737 C   0  0  0  0  0  0  0  0  0  0  0  0
   -1.0957   -3.2769   31.4624 C   0  0  0  0  0  0  0  0  0  0  0  0
    0.3447   -3.7695   31.8359 C   0  0  0  0  0  0  0  0  0  0  0  0
    1.0532   -4.3462   30.5808 C   0  0  0  0  0  0  0  0  0  0  0  0
    0.3658   -5.5769   30.0215 C   0  0  0  0  0  0  0  0  0  0  0  0
   -0.3548   -6.4476   30.9786 C   0  0  0  0  0  0  0  0  0  0  0  0
   -1.1252   -7.4688   30.6796 N   0  0  0  0  0  0  0  0  0  0  0  0
   -1.6652   -7.9269   31.8436 N   0  0  0  0  0  0  0  0  0  0  0  0
   -1.2000   -7.1968   32.8330 C   0  0  0  0  0  0  0  0  0  0  0  0
   -1.4191   -7.4708   34.1385 N   0  0  0  0  0  0  0  0  0  0  0  0
   -0.3920   -6.2084   32.3349 N   0  0  0  0  0  0  0  0  0  0  0  0
    0.4230   -5.0962   32.8729 C   0  0  0  0  0  0  0  0  0  0  0  0
    0.5988   -4.8878   34.3363 N   0  0  0  0  0  0  0  0  0  0  0  0
   -0.4838   -4.3062   35.1459 C   0  0  0  0  0  0  0  0  0  0  0  0
   -0.0586   -4.4929   36.6209 C   0  0  0  0  0  0  0  0  0  0  0  0
    0.3927   -5.9496   36.7179 C   0  0  0  0  0  0  0  0  0  0  0  0
    0.9640   -6.4932   38.0123 C   0  0  0  0  0  0  0  0  0  0  0  0
    2.1763   -7.1911   38.1376 C   0  0  0  0  0  0  0  0  0  0  0  0
    2.5427   -7.8042   39.3437 C   0  0  0  0  0  0  0  0  0  0  0  0
    1.7010   -7.7439   40.4484 C   0  0  0  0  0  0  0  0  0  0  0  0
    0.4993   -7.0533   40.3544 C   0  0  0  0  0  0  0  0  0  0  0  0
    0.1399   -6.4310   39.1547 C   0  0  0  0  0  0  0  0  0  0  0  0
    1.3986   -6.1554   35.2468 S   0  0  0  0  0  0  0  0  0  0  0  0
    2.7667   -5.7359   35.4180 O   0  0  0  0  0  0  0  0  0  0  0  0
    1.1116   -7.4587   34.6881 O   0  0  0  0  0  0  0  0  0  0  0  0
    1.1224   -2.4768   32.2292 C   0  0  0  0  0  0  0  0  0  0  0  0
    2.2213    2.4475   29.3291 H   0  0  0  0  0  0  0  0  0  0  0  0
    3.1890    0.9775   29.6345 H   0  0  0  0  0  0  0  0  0  0  0  0
    1.4814    0.8430   29.0851 H   0  0  0  0  0  0  0  0  0  0  0  0
    2.6901   -0.3673   32.2413 H   0  0  0  0  0  0  0  0  0  0  0  0
    1.6537   -1.5639   30.3103 H   0  0  0  0  0  0  0  0  0  0  0  0
   -0.8882   -0.4609   31.6074 H   0  0  0  0  0  0  0  0  0  0  0  0
   -0.3741   -0.2345   29.9371 H   0  0  0  0  0  0  0  0  0  0  0  0
   -2.2025   -1.8990   30.2149 H   0  0  0  0  0  0  0  0  0  0  0  0
   -0.7933   -2.5717   29.4174 H   0  0  0  0  0  0  0  0  0  0  0  0
   -1.7122   -4.1088   31.1306 H   0  0  0  0  0  0  0  0  0  0  0  0
   -1.5771   -2.8971   32.3732 H   0  0  0  0  0  0  0  0  0  0  0  0
    1.1509   -3.6150   29.7719 H   0  0  0  0  0  0  0  0  0  0  0  0
    2.0913   -4.6050   30.8359 H   0  0  0  0  0  0  0  0  0  0  0  0
    1.1280   -6.1666   29.5069 H   0  0  0  0  0  0  0  0  0  0  0  0
   -0.3753   -5.2099   29.3097 H   0  0  0  0  0  0  0  0  0  0  0  0
   -0.5361   -7.7848   34.5613 H   0  0  0  0  0  0  0  0  0  0  0  0
   -1.9573   -8.3467   34.1985 H   0  0  0  0  0  0  0  0  0  0  0  0
    1.4354   -5.4822   32.6511 H   0  0  0  0  0  0  0  0  0  0  0  0
   -1.4114   -4.8405   34.9574 H   0  0  0  0  0  0  0  0  0  0  0  0
   -0.6163   -3.2461   34.9175 H   0  0  0  0  0  0  0  0  0  0  0  0
    0.7706   -3.8171   36.8642 H   0  0  0  0  0  0  0  0  0  0  0  0
   -0.8894   -4.2660   37.2962 H   0  0  0  0  0  0  0  0  0  0  0  0
   -0.4906   -6.5745   36.5225 H   0  0  0  0  0  0  0  0  0  0  0  0
    2.8665   -7.3089   37.3061 H   0  0  0  0  0  0  0  0  0  0  0  0
    3.4848   -8.3438   39.4103 H   0  0  0  0  0  0  0  0  0  0  0  0
    1.9832   -8.2302   41.3784 H   0  0  0  0  0  0  0  0  0  0  0  0
   -0.1639   -6.9999   41.2146 H   0  0  0  0  0  0  0  0  0  0  0  0
   -0.8213   -5.9198   39.1163 H   0  0  0  0  0  0  0  0  0  0  0  0
    0.7249   -2.1163   33.1878 H   0  0  0  0  0  0  0  0  0  0  0  0
    2.1734   -2.7303   32.4232 H   0  0  0  0  0  0  0  0  0  0  0  0
  1  2  1  0
  2  3  2  0
  2  4  2  0
  2  5  1  0
  5  6  1  0
  6  7  1  0
  7  8  1  0
  8  9  1  0
  9 10  1  0
 10 11  1  0
 11 12  1  0
 12 13  1  0
 13 14  2  0
 14 15  1  0
 15 16  2  0
 16 17  1  0
 16 18  1  0
 18 19  1  0
 19 20  1  0
 20 21  1  0
 21 22  1  0
 22 23  1  0
 23 24  1  0
 24 25  2  0
 25 26  1  0
 26 27  2  0
 27 28  1  0
 28 29  2  0
 23 30  1  0
 30 31  2  0
 30 32  2  0
 10 33  1  0
 33  6  1  0
 19 10  1  0
 30 20  1  0
 18 13  1  0
 29 24  1  0
  1 34  1  0
  1 35  1  0
  1 36  1  0
  5 37  1  0
  6 38  1  0
  7 39  1  0
  7 40  1  0
  8 41  1  0
  8 42  1  0
  9 43  1  0
  9 44  1  0
 11 45  1  0
 11 46  1  0
 12 47  1  0
 12 48  1  0
 17 49  1  0
 17 50  1  0
 19 51  1  0
 21 52  1  0
 21 53  1  0
 22 54  1  0
 22 55  1  0
 23 56  1  0
 25 57  1  0
 26 58  1  0
 27 59  1  0
 28 60  1  0
 29 61  1  0
 33 62  1  0
 33 63  1  0
M  END
>  <Energy>  (436) 
-41.612677257481238

>  <compound_id>  (436) 
4114

>  <target_id>  (436) 
1

>  <reference_id>  (436) 
13

>  <inspiration_ids>  (436) 
[144, 13]

>  <energy_score>  (436) 
-48.48063307906091

>  <distance_score>  (436) 
2.7384221266482776

>  <path>  (436) 
/opt/xchem-fragalysis-2/maxwin/BulkDock/SCRATCH/505735/C4114-P13/C4114-P13.minimised.mol

>  <scratch_subdir>  (436) 
/opt/xchem-fragalysis-2/maxwin/BulkDock/SCRATCH/505735/C4114-P13

>  <fragmenstein_runtime>  (436) 
28.252179861068726

>  <fragmenstein_outcome>  (436) 
too moved

>  <fragmenstein_mode>  (436) 
expansion

>  <fragmenstein_error>  (436) 


$$$$
C3786-P144
     RDKit          3D

 58 62  0  0  0  0  0  0  0  0999 V2000
    4.4747   -1.7388   33.0179 C   0  0  0  0  0  0  0  0  0  0  0  0
    3.2973   -2.5589   32.6115 N   0  0  0  0  0  0  0  0  0  0  0  0
    4.2679   -2.9035   31.4516 C   0  0  0  0  0  0  0  0  0  0  0  0
    3.5870   -3.5039   30.1904 C   0  0  0  0  0  0  0  0  0  0  0  0
    4.1671   -4.6182   29.5779 C   0  0  0  0  0  0  0  0  0  0  0  0
    3.7577   -5.0475   28.3227 C   0  0  0  0  0  0  0  0  0  0  0  0
    2.7955   -4.3367   27.6279 C   0  0  0  0  0  0  0  0  0  0  0  0
    2.1670   -3.2577   28.2250 C   0  0  0  0  0  0  0  0  0  0  0  0
    2.5725   -2.8368   29.4928 C   0  0  0  0  0  0  0  0  0  0  0  0
    2.7106   -3.8236   33.2335 C   0  0  0  0  0  0  0  0  0  0  0  0
    3.0895   -4.4638   34.1004 O   0  0  0  0  0  0  0  0  0  0  0  0
    1.4816   -4.0010   32.3295 N   0  0  0  0  0  0  0  0  0  0  0  0
    0.5741   -5.0106   32.2636 C   0  0  0  0  0  0  0  0  0  0  0  0
    0.1911   -5.2040   30.8634 C   0  0  0  0  0  0  0  0  0  0  0  0
   -0.4141   -6.3120   30.4377 C   0  0  0  0  0  0  0  0  0  0  0  0
   -0.8828   -7.2218   31.3910 C   0  0  0  0  0  0  0  0  0  0  0  0
   -1.5840   -8.3085   31.2299 N   0  0  0  0  0  0  0  0  0  0  0  0
   -1.9791   -8.7066   32.4616 N   0  0  0  0  0  0  0  0  0  0  0  0
   -1.4733   -7.8829   33.3500 C   0  0  0  0  0  0  0  0  0  0  0  0
   -0.6896   -6.9469   32.7396 N   0  0  0  0  0  0  0  0  0  0  0  0
    0.1053   -5.8762   33.1992 C   0  0  0  0  0  0  0  0  0  0  0  0
    0.4345   -5.6554   34.5702 N   0  0  0  0  0  0  0  0  0  0  0  0
    0.1672   -4.4215   35.3339 C   0  0  0  0  0  0  0  0  0  0  0  0
    0.4623   -4.7276   36.8142 C   0  0  0  0  0  0  0  0  0  0  0  0
    1.5094   -5.8566   36.8636 C   0  0  0  0  0  0  0  0  0  0  0  0
    1.6342   -6.6483   38.1488 C   0  0  0  0  0  0  0  0  0  0  0  0
    2.8719   -7.2266   38.4766 C   0  0  0  0  0  0  0  0  0  0  0  0
    3.0187   -8.0108   39.6245 C   0  0  0  0  0  0  0  0  0  0  0  0
    1.9310   -8.2355   40.4632 C   0  0  0  0  0  0  0  0  0  0  0  0
    0.6968   -7.6744   40.1553 C   0  0  0  0  0  0  0  0  0  0  0  0
    0.5500   -6.8866   39.0105 C   0  0  0  0  0  0  0  0  0  0  0  0
    0.9333   -6.9490   35.5566 S   0  0  0  0  0  0  0  0  0  0  0  0
    1.9947   -7.6531   34.8649 O   0  0  0  0  0  0  0  0  0  0  0  0
   -0.2605   -7.6213   36.0136 O   0  0  0  0  0  0  0  0  0  0  0  0
    4.1754   -1.3614   34.0073 H   0  0  0  0  0  0  0  0  0  0  0  0
    5.3970   -2.2920   33.2550 H   0  0  0  0  0  0  0  0  0  0  0  0
    4.6048   -0.8192   32.4288 H   0  0  0  0  0  0  0  0  0  0  0  0
    4.9663   -3.6784   31.8108 H   0  0  0  0  0  0  0  0  0  0  0  0
    4.8175   -2.0623   30.9903 H   0  0  0  0  0  0  0  0  0  0  0  0
    5.0094   -5.1246   30.0480 H   0  0  0  0  0  0  0  0  0  0  0  0
    4.2638   -5.8833   27.8458 H   0  0  0  0  0  0  0  0  0  0  0  0
    2.5815   -4.6100   26.6035 H   0  0  0  0  0  0  0  0  0  0  0  0
    1.4099   -2.6849   27.6960 H   0  0  0  0  0  0  0  0  0  0  0  0
    2.1422   -1.9225   29.9010 H   0  0  0  0  0  0  0  0  0  0  0  0
    1.4880   -3.2967   31.6088 H   0  0  0  0  0  0  0  0  0  0  0  0
    0.4596   -4.4615   30.1211 H   0  0  0  0  0  0  0  0  0  0  0  0
   -0.6572   -6.4685   29.3959 H   0  0  0  0  0  0  0  0  0  0  0  0
   -1.6815   -7.9403   34.4038 H   0  0  0  0  0  0  0  0  0  0  0  0
   -0.8741   -4.1090   35.2153 H   0  0  0  0  0  0  0  0  0  0  0  0
    0.8060   -3.6013   35.0040 H   0  0  0  0  0  0  0  0  0  0  0  0
    0.8023   -3.8357   37.3510 H   0  0  0  0  0  0  0  0  0  0  0  0
   -0.4842   -5.0297   37.2756 H   0  0  0  0  0  0  0  0  0  0  0  0
    2.4851   -5.4655   36.5534 H   0  0  0  0  0  0  0  0  0  0  0  0
    3.7358   -7.0852   37.8290 H   0  0  0  0  0  0  0  0  0  0  0  0
    3.9828   -8.4556   39.8565 H   0  0  0  0  0  0  0  0  0  0  0  0
    2.0406   -8.8556   41.3480 H   0  0  0  0  0  0  0  0  0  0  0  0
   -0.1616   -7.8650   40.7943 H   0  0  0  0  0  0  0  0  0  0  0  0
   -0.4434   -6.5026   38.7941 H   0  0  0  0  0  0  0  0  0  0  0  0
  1  2  1  0
  2  3  1  0
  3  4  1  0
  4  5  2  0
  5  6  1  0
  6  7  2  0
  7  8  1  0
  8  9  2  0
  2 10  1  0
 10 11  2  0
 10 12  1  0
 12 13  1  0
 13 14  1  0
 14 15  2  0
 15 16  1  0
 16 17  2  0
 17 18  1  0
 18 19  2  0
 19 20  1  0
 20 21  1  0
 21 22  1  0
 22 23  1  0
 23 24  1  0
 24 25  1  0
 25 26  1  0
 26 27  2  0
 27 28  1  0
 28 29  2  0
 29 30  1  0
 30 31  2  0
 25 32  1  0
 32 33  2  0
 32 34  2  0
  9  4  1  0
 21 13  2  0
 32 22  1  0
 20 16  1  0
 31 26  1  0
  1 35  1  0
  1 36  1  0
  1 37  1  0
  3 38  1  0
  3 39  1  0
  5 40  1  0
  6 41  1  0
  7 42  1  0
  8 43  1  0
  9 44  1  0
 12 45  1  0
 14 46  1  0
 15 47  1  0
 19 48  1  0
 23 49  1  0
 23 50  1  0
 24 51  1  0
 24 52  1  0
 25 53  1  0
 27 54  1  0
 28 55  1  0
 29 56  1  0
 30 57  1  0
 31 58  1  0
M  END
>  <Energy>  (437) 
120.40193420360136

>  <compound_id>  (437) 
3786

>  <target_id>  (437) 
1

>  <reference_id>  (437) 
144

>  <inspiration_ids>  (437) 
[144, 40]

>  <energy_score>  (437) 
34.615326671655595

>  <distance_score>  (437) 
1.6510595076519496

>  <path>  (437) 
/opt/xchem-fragalysis-2/maxwin/BulkDock/SCRATCH/505735/C3786-P144/C3786-P144.minimised.mol

>  <scratch_subdir>  (437) 
/opt/xchem-fragalysis-2/maxwin/BulkDock/SCRATCH/505735/C3786-P144

>  <fragmenstein_runtime>  (437) 
30.9874210357666

>  <fragmenstein_outcome>  (437) 
too moved

>  <fragmenstein_mode>  (437) 
expansion

>  <fragmenstein_error>  (437) 


$$$$
C3786-P40
     RDKit          3D

 58 62  0  0  0  0  0  0  0  0999 V2000
    5.2424   -2.1821   33.6516 C   0  0  0  0  0  0  0  0  0  0  0  0
    4.0364   -2.8059   33.0435 N   0  0  0  0  0  0  0  0  0  0  0  0
    5.0393   -3.0812   31.8817 C   0  0  0  0  0  0  0  0  0  0  0  0
    4.3456   -3.3701   30.5367 C   0  0  0  0  0  0  0  0  0  0  0  0
    4.5430   -4.5938   29.8813 C   0  0  0  0  0  0  0  0  0  0  0  0
    3.9371   -4.8581   28.6516 C   0  0  0  0  0  0  0  0  0  0  0  0
    3.1524   -3.8871   28.0392 C   0  0  0  0  0  0  0  0  0  0  0  0
    2.9755   -2.6506   28.6540 C   0  0  0  0  0  0  0  0  0  0  0  0
    3.5712   -2.3914   29.8934 C   0  0  0  0  0  0  0  0  0  0  0  0
    3.3184   -4.0429   33.3986 C   0  0  0  0  0  0  0  0  0  0  0  0
    3.5806   -4.8742   34.1897 O   0  0  0  0  0  0  0  0  0  0  0  0
    2.1693   -3.9107   32.5086 N   0  0  0  0  0  0  0  0  0  0  0  0
    1.1179   -4.7537   32.2708 C   0  0  0  0  0  0  0  0  0  0  0  0
    0.6646   -4.6028   30.8951 C   0  0  0  0  0  0  0  0  0  0  0  0
   -0.0724   -5.5290   30.2836 C   0  0  0  0  0  0  0  0  0  0  0  0
   -0.5338   -6.6370   31.0166 C   0  0  0  0  0  0  0  0  0  0  0  0
   -1.2654   -7.6594   30.6426 N   0  0  0  0  0  0  0  0  0  0  0  0
   -1.5749   -8.3642   31.7666 N   0  0  0  0  0  0  0  0  0  0  0  0
   -1.0093   -7.7596   32.7929 C   0  0  0  0  0  0  0  0  0  0  0  0
   -0.2779   -6.6735   32.3900 N   0  0  0  0  0  0  0  0  0  0  0  0
    0.5535   -5.7232   33.0425 C   0  0  0  0  0  0  0  0  0  0  0  0
    0.8057   -5.6396   34.4498 N   0  0  0  0  0  0  0  0  0  0  0  0
    0.5758   -4.4048   35.2483 C   0  0  0  0  0  0  0  0  0  0  0  0
    0.7570   -4.7700   36.7336 C   0  0  0  0  0  0  0  0  0  0  0  0
    1.6444   -6.0232   36.7891 C   0  0  0  0  0  0  0  0  0  0  0  0
    1.6639   -6.8417   38.0579 C   0  0  0  0  0  0  0  0  0  0  0  0
    2.7974   -7.6269   38.3345 C   0  0  0  0  0  0  0  0  0  0  0  0
    2.8623   -8.4171   39.4837 C   0  0  0  0  0  0  0  0  0  0  0  0
    1.7946   -8.4388   40.3755 C   0  0  0  0  0  0  0  0  0  0  0  0
    0.6627   -7.6716   40.1174 C   0  0  0  0  0  0  0  0  0  0  0  0
    0.5963   -6.8796   38.9679 C   0  0  0  0  0  0  0  0  0  0  0  0
    0.9642   -7.0008   35.4457 S   0  0  0  0  0  0  0  0  0  0  0  0
    1.9305   -7.9043   34.8581 O   0  0  0  0  0  0  0  0  0  0  0  0
   -0.3748   -7.4188   35.8087 O   0  0  0  0  0  0  0  0  0  0  0  0
    5.5040   -1.2084   33.2142 H   0  0  0  0  0  0  0  0  0  0  0  0
    4.9091   -1.9304   34.6689 H   0  0  0  0  0  0  0  0  0  0  0  0
    6.0885   -2.8607   33.8378 H   0  0  0  0  0  0  0  0  0  0  0  0
    5.6325   -3.9752   32.1356 H   0  0  0  0  0  0  0  0  0  0  0  0
    5.7101   -2.2495   31.6022 H   0  0  0  0  0  0  0  0  0  0  0  0
    5.2022   -5.3456   30.3089 H   0  0  0  0  0  0  0  0  0  0  0  0
    4.1129   -5.8094   28.1547 H   0  0  0  0  0  0  0  0  0  0  0  0
    2.7097   -4.0818   27.0687 H   0  0  0  0  0  0  0  0  0  0  0  0
    2.3834   -1.8800   28.1631 H   0  0  0  0  0  0  0  0  0  0  0  0
    3.4369   -1.4123   30.3512 H   0  0  0  0  0  0  0  0  0  0  0  0
    2.3102   -3.1157   31.9033 H   0  0  0  0  0  0  0  0  0  0  0  0
    0.9515   -3.7198   30.3330 H   0  0  0  0  0  0  0  0  0  0  0  0
   -0.3714   -5.3789   29.2605 H   0  0  0  0  0  0  0  0  0  0  0  0
   -1.1115   -8.0875   33.8108 H   0  0  0  0  0  0  0  0  0  0  0  0
   -0.4338   -4.0178   35.0736 H   0  0  0  0  0  0  0  0  0  0  0  0
    1.2914   -3.6223   34.9924 H   0  0  0  0  0  0  0  0  0  0  0  0
    1.1857   -3.9403   37.3054 H   0  0  0  0  0  0  0  0  0  0  0  0
   -0.2398   -4.9576   37.1485 H   0  0  0  0  0  0  0  0  0  0  0  0
    2.6687   -5.7530   36.5067 H   0  0  0  0  0  0  0  0  0  0  0  0
    3.6435   -7.6375   37.6483 H   0  0  0  0  0  0  0  0  0  0  0  0
    3.7441   -9.0224   39.6783 H   0  0  0  0  0  0  0  0  0  0  0  0
    1.8403   -9.0599   41.2663 H   0  0  0  0  0  0  0  0  0  0  0  0
   -0.1763   -7.6962   40.8090 H   0  0  0  0  0  0  0  0  0  0  0  0
   -0.3166   -6.3143   38.7999 H   0  0  0  0  0  0  0  0  0  0  0  0
  1  2  1  0
  2  3  1  0
  3  4  1  0
  4  5  2  0
  5  6  1  0
  6  7  2  0
  7  8  1  0
  8  9  2  0
  2 10  1  0
 10 11  2  0
 10 12  1  0
 12 13  1  0
 13 14  1  0
 14 15  2  0
 15 16  1  0
 16 17  2  0
 17 18  1  0
 18 19  2  0
 19 20  1  0
 20 21  1  0
 21 22  1  0
 22 23  1  0
 23 24  1  0
 24 25  1  0
 25 26  1  0
 26 27  2  0
 27 28  1  0
 28 29  2  0
 29 30  1  0
 30 31  2  0
 25 32  1  0
 32 33  2  0
 32 34  2  0
  9  4  1  0
 21 13  2  0
 32 22  1  0
 20 16  1  0
 31 26  1  0
  1 35  1  0
  1 36  1  0
  1 37  1  0
  3 38  1  0
  3 39  1  0
  5 40  1  0
  6 41  1  0
  7 42  1  0
  8 43  1  0
  9 44  1  0
 12 45  1  0
 14 46  1  0
 15 47  1  0
 19 48  1  0
 23 49  1  0
 23 50  1  0
 24 51  1  0
 24 52  1  0
 25 53  1  0
 27 54  1  0
 28 55  1  0
 29 56  1  0
 30 57  1  0
 31 58  1  0
M  END
>  <Energy>  (438) 
99.673225940245388

>  <compound_id>  (438) 
3786

>  <target_id>  (438) 
1

>  <reference_id>  (438) 
40

>  <inspiration_ids>  (438) 
[144, 40]

>  <energy_score>  (438) 
12.439034093102919

>  <distance_score>  (438) 
1.9791419854159147

>  <path>  (438) 
/opt/xchem-fragalysis-2/maxwin/BulkDock/SCRATCH/505735/C3786-P40/C3786-P40.minimised.mol

>  <scratch_subdir>  (438) 
/opt/xchem-fragalysis-2/maxwin/BulkDock/SCRATCH/505735/C3786-P40

>  <fragmenstein_runtime>  (438) 
30.36539626121521

>  <fragmenstein_outcome>  (438) 
too moved

>  <fragmenstein_mode>  (438) 
expansion

>  <fragmenstein_error>  (438) 


$$$$
C3873-P144
     RDKit          3D

 56 60  0  0  0  0  0  0  0  0999 V2000
    0.6248   -0.9101   33.8000 C   0  0  0  0  0  0  0  0  0  0  0  0
    0.5501   -2.2750   33.2048 N   0  0  0  0  0  0  0  0  0  0  0  0
    1.1656   -1.5129   32.0312 C   0  0  0  0  0  0  0  0  0  0  0  0
    0.2365   -0.9729   30.9492 C   0  0  0  0  0  0  0  0  0  0  0  0
    0.4354    0.3424   30.5022 C   0  0  0  0  0  0  0  0  0  0  0  0
   -0.1156    0.7733   29.2969 C   0  0  0  0  0  0  0  0  0  0  0  0
   -0.8835   -0.0942   28.5314 C   0  0  0  0  0  0  0  0  0  0  0  0
   -1.1444   -1.3755   29.0031 C   0  0  0  0  0  0  0  0  0  0  0  0
   -0.6184   -1.8065   30.2210 C   0  0  0  0  0  0  0  0  0  0  0  0
    1.3400   -3.5354   33.5177 C   0  0  0  0  0  0  0  0  0  0  0  0
    2.2484   -3.7034   34.2474 O   0  0  0  0  0  0  0  0  0  0  0  0
    0.7072   -4.6888   32.7949 C   0  0  0  0  0  0  0  0  0  0  0  0
    0.8529   -4.8191   31.3449 C   0  0  0  0  0  0  0  0  0  0  0  0
    0.2209   -5.7723   30.6443 C   0  0  0  0  0  0  0  0  0  0  0  0
   -0.5600   -6.7308   31.3227 C   0  0  0  0  0  0  0  0  0  0  0  0
   -1.2794   -7.7341   30.8799 N   0  0  0  0  0  0  0  0  0  0  0  0
   -1.8302   -8.3522   31.9677 N   0  0  0  0  0  0  0  0  0  0  0  0
   -1.4309   -7.7129   33.0471 C   0  0  0  0  0  0  0  0  0  0  0  0
   -0.6161   -6.6641   32.7081 N   0  0  0  0  0  0  0  0  0  0  0  0
    0.0134   -5.6504   33.4636 C   0  0  0  0  0  0  0  0  0  0  0  0
   -0.0636   -5.6451   34.8954 N   0  0  0  0  0  0  0  0  0  0  0  0
   -0.3191   -4.5042   35.8047 C   0  0  0  0  0  0  0  0  0  0  0  0
   -0.0526   -4.9972   37.2286 C   0  0  0  0  0  0  0  0  0  0  0  0
    1.1326   -5.9664   37.1364 C   0  0  0  0  0  0  0  0  0  0  0  0
    1.4116   -6.8494   38.3284 C   0  0  0  0  0  0  0  0  0  0  0  0
    2.6698   -7.4636   38.4457 C   0  0  0  0  0  0  0  0  0  0  0  0
    2.9656   -8.2910   39.5317 C   0  0  0  0  0  0  0  0  0  0  0  0
    2.0088   -8.5228   40.5154 C   0  0  0  0  0  0  0  0  0  0  0  0
    0.7575   -7.9251   40.4155 C   0  0  0  0  0  0  0  0  0  0  0  0
    0.4638   -7.0911   39.3351 C   0  0  0  0  0  0  0  0  0  0  0  0
    0.6742   -6.9699   35.7115 S   0  0  0  0  0  0  0  0  0  0  0  0
    1.8153   -7.4127   34.9325 O   0  0  0  0  0  0  0  0  0  0  0  0
   -0.4093   -7.8590   36.0533 O   0  0  0  0  0  0  0  0  0  0  0  0
    1.6373   -0.6002   34.1023 H   0  0  0  0  0  0  0  0  0  0  0  0
    0.0039   -0.1317   33.3356 H   0  0  0  0  0  0  0  0  0  0  0  0
    0.1397   -1.0545   34.7777 H   0  0  0  0  0  0  0  0  0  0  0  0
    2.0174   -0.8338   32.2394 H   0  0  0  0  0  0  0  0  0  0  0  0
    1.7463   -2.2666   31.4855 H   0  0  0  0  0  0  0  0  0  0  0  0
    1.1041    1.0163   31.0342 H   0  0  0  0  0  0  0  0  0  0  0  0
    0.1027    1.7693   28.9190 H   0  0  0  0  0  0  0  0  0  0  0  0
   -1.2771    0.2207   27.5675 H   0  0  0  0  0  0  0  0  0  0  0  0
   -1.7346   -2.0569   28.3930 H   0  0  0  0  0  0  0  0  0  0  0  0
   -0.8152   -2.8229   30.5408 H   0  0  0  0  0  0  0  0  0  0  0  0
    1.5062   -4.1389   30.8126 H   0  0  0  0  0  0  0  0  0  0  0  0
    0.3172   -5.8369   29.5695 H   0  0  0  0  0  0  0  0  0  0  0  0
   -1.7162   -7.9646   34.0575 H   0  0  0  0  0  0  0  0  0  0  0  0
    0.3270   -3.6488   35.6373 H   0  0  0  0  0  0  0  0  0  0  0  0
   -1.3511   -4.1630   35.7162 H   0  0  0  0  0  0  0  0  0  0  0  0
    0.1455   -4.1684   37.9162 H   0  0  0  0  0  0  0  0  0  0  0  0
   -0.9616   -5.4999   37.5769 H   0  0  0  0  0  0  0  0  0  0  0  0
    2.0373   -5.4104   36.8599 H   0  0  0  0  0  0  0  0  0  0  0  0
    3.4339   -7.3087   37.6855 H   0  0  0  0  0  0  0  0  0  0  0  0
    3.9427   -8.7613   39.6037 H   0  0  0  0  0  0  0  0  0  0  0  0
    2.2344   -9.1741   41.3547 H   0  0  0  0  0  0  0  0  0  0  0  0
    0.0026   -8.1145   41.1741 H   0  0  0  0  0  0  0  0  0  0  0  0
   -0.5299   -6.6540   39.3018 H   0  0  0  0  0  0  0  0  0  0  0  0
  1  2  1  0
  2  3  1  0
  3  4  1  0
  4  5  2  0
  5  6  1  0
  6  7  2  0
  7  8  1  0
  8  9  2  0
  2 10  1  0
 10 11  2  0
 10 12  1  0
 12 13  1  0
 13 14  2  0
 14 15  1  0
 15 16  2  0
 16 17  1  0
 17 18  2  0
 18 19  1  0
 19 20  1  0
 20 21  1  0
 21 22  1  0
 22 23  1  0
 23 24  1  0
 24 25  1  0
 25 26  2  0
 26 27  1  0
 27 28  2  0
 28 29  1  0
 29 30  2  0
 24 31  1  0
 31 32  2  0
 31 33  2  0
  9  4  1  0
 20 12  2  0
 31 21  1  0
 19 15  1  0
 30 25  1  0
  1 34  1  0
  1 35  1  0
  1 36  1  0
  3 37  1  0
  3 38  1  0
  5 39  1  0
  6 40  1  0
  7 41  1  0
  8 42  1  0
  9 43  1  0
 13 44  1  0
 14 45  1  0
 18 46  1  0
 22 47  1  0
 22 48  1  0
 23 49  1  0
 23 50  1  0
 24 51  1  0
 26 52  1  0
 27 53  1  0
 28 54  1  0
 29 55  1  0
 30 56  1  0
M  END
>  <Energy>  (439) 
164.78656259979039

>  <compound_id>  (439) 
3873

>  <target_id>  (439) 
1

>  <reference_id>  (439) 
144

>  <inspiration_ids>  (439) 
[144, 59]

>  <energy_score>  (439) 
34.77821779505692

>  <distance_score>  (439) 
2.149229378858993

>  <path>  (439) 
/opt/xchem-fragalysis-2/maxwin/BulkDock/SCRATCH/505735/C3873-P144/C3873-P144.minimised.mol

>  <scratch_subdir>  (439) 
/opt/xchem-fragalysis-2/maxwin/BulkDock/SCRATCH/505735/C3873-P144

>  <fragmenstein_runtime>  (439) 
7.636669397354126

>  <fragmenstein_outcome>  (439) 
too moved

>  <fragmenstein_mode>  (439) 
expansion

>  <fragmenstein_error>  (439) 


$$$$
C3873-P59
     RDKit          3D

 56 60  0  0  0  0  0  0  0  0999 V2000
   -1.8204   -1.1275   34.0640 C   0  0  0  0  0  0  0  0  0  0  0  0
   -1.2575   -2.3867   33.5069 N   0  0  0  0  0  0  0  0  0  0  0  0
   -1.9236   -1.8513   32.2216 C   0  0  0  0  0  0  0  0  0  0  0  0
   -1.1423   -1.1426   31.1159 C   0  0  0  0  0  0  0  0  0  0  0  0
   -0.1679   -0.1608   31.3328 C   0  0  0  0  0  0  0  0  0  0  0  0
    0.4594    0.4778   30.2569 C   0  0  0  0  0  0  0  0  0  0  0  0
    0.1210    0.1521   28.9461 C   0  0  0  0  0  0  0  0  0  0  0  0
   -0.8464   -0.8147   28.7063 C   0  0  0  0  0  0  0  0  0  0  0  0
   -1.4737   -1.4503   29.7791 C   0  0  0  0  0  0  0  0  0  0  0  0
    0.0929   -2.7676   33.2437 C   0  0  0  0  0  0  0  0  0  0  0  0
    1.1124   -2.1362   33.3205 O   0  0  0  0  0  0  0  0  0  0  0  0
    0.1202   -4.1722   32.7063 C   0  0  0  0  0  0  0  0  0  0  0  0
    0.4985   -4.2273   31.2878 C   0  0  0  0  0  0  0  0  0  0  0  0
    0.3206   -5.3201   30.5377 C   0  0  0  0  0  0  0  0  0  0  0  0
   -0.2776   -6.4566   31.1191 C   0  0  0  0  0  0  0  0  0  0  0  0
   -0.7452   -7.5608   30.5821 N   0  0  0  0  0  0  0  0  0  0  0  0
   -1.2968   -8.3051   31.5868 N   0  0  0  0  0  0  0  0  0  0  0  0
   -1.1278   -7.6462   32.7137 C   0  0  0  0  0  0  0  0  0  0  0  0
   -0.4869   -6.4510   32.4969 N   0  0  0  0  0  0  0  0  0  0  0  0
   -0.2138   -5.3320   33.3382 C   0  0  0  0  0  0  0  0  0  0  0  0
   -0.3413   -5.3914   34.7889 N   0  0  0  0  0  0  0  0  0  0  0  0
   -0.2335   -4.2421   35.7310 C   0  0  0  0  0  0  0  0  0  0  0  0
   -0.0812   -4.8097   37.1419 C   0  0  0  0  0  0  0  0  0  0  0  0
    0.9316   -5.9392   37.0011 C   0  0  0  0  0  0  0  0  0  0  0  0
    1.1220   -6.8935   38.1540 C   0  0  0  0  0  0  0  0  0  0  0  0
    2.2342   -7.7548   38.1473 C   0  0  0  0  0  0  0  0  0  0  0  0
    2.4526   -8.6556   39.1913 C   0  0  0  0  0  0  0  0  0  0  0  0
    1.5652   -8.7100   40.2613 C   0  0  0  0  0  0  0  0  0  0  0  0
    0.4623   -7.8618   40.2887 C   0  0  0  0  0  0  0  0  0  0  0  0
    0.2429   -6.9580   39.2458 C   0  0  0  0  0  0  0  0  0  0  0  0
    0.3064   -6.8185   35.5577 S   0  0  0  0  0  0  0  0  0  0  0  0
    1.4016   -7.3239   34.7524 O   0  0  0  0  0  0  0  0  0  0  0  0
   -0.8402   -7.6205   35.9218 O   0  0  0  0  0  0  0  0  0  0  0  0
   -1.4977   -0.1754   33.6295 H   0  0  0  0  0  0  0  0  0  0  0  0
   -1.3852   -1.0844   35.0733 H   0  0  0  0  0  0  0  0  0  0  0  0
   -2.9023   -1.1954   34.2508 H   0  0  0  0  0  0  0  0  0  0  0  0
   -2.1818   -2.8202   31.7592 H   0  0  0  0  0  0  0  0  0  0  0  0
   -2.9393   -1.4186   32.3029 H   0  0  0  0  0  0  0  0  0  0  0  0
    0.1532    0.1145   32.3338 H   0  0  0  0  0  0  0  0  0  0  0  0
    1.2220    1.2305   30.4447 H   0  0  0  0  0  0  0  0  0  0  0  0
    0.6106    0.6499   28.1128 H   0  0  0  0  0  0  0  0  0  0  0  0
   -1.1162   -1.0765   27.6840 H   0  0  0  0  0  0  0  0  0  0  0  0
   -2.2268   -2.2014   29.5457 H   0  0  0  0  0  0  0  0  0  0  0  0
    0.9515   -3.3378   30.8507 H   0  0  0  0  0  0  0  0  0  0  0  0
    0.6049   -5.3252   29.4948 H   0  0  0  0  0  0  0  0  0  0  0  0
   -1.4961   -7.9722   33.6723 H   0  0  0  0  0  0  0  0  0  0  0  0
    0.6518   -3.6394   35.5129 H   0  0  0  0  0  0  0  0  0  0  0  0
   -1.1383   -3.6327   35.7010 H   0  0  0  0  0  0  0  0  0  0  0  0
    0.2476   -4.0452   37.8531 H   0  0  0  0  0  0  0  0  0  0  0  0
   -1.0591   -5.1786   37.4747 H   0  0  0  0  0  0  0  0  0  0  0  0
    1.9042   -5.5157   36.7177 H   0  0  0  0  0  0  0  0  0  0  0  0
    2.9434   -7.7399   37.3207 H   0  0  0  0  0  0  0  0  0  0  0  0
    3.3114   -9.3217   39.1652 H   0  0  0  0  0  0  0  0  0  0  0  0
    1.7286   -9.4176   41.0700 H   0  0  0  0  0  0  0  0  0  0  0  0
   -0.2342   -7.9079   41.1227 H   0  0  0  0  0  0  0  0  0  0  0  0
   -0.6348   -6.3200   39.3118 H   0  0  0  0  0  0  0  0  0  0  0  0
  1  2  1  0
  2  3  1  0
  3  4  1  0
  4  5  2  0
  5  6  1  0
  6  7  2  0
  7  8  1  0
  8  9  2  0
  2 10  1  0
 10 11  2  0
 10 12  1  0
 12 13  1  0
 13 14  2  0
 14 15  1  0
 15 16  2  0
 16 17  1  0
 17 18  2  0
 18 19  1  0
 19 20  1  0
 20 21  1  0
 21 22  1  0
 22 23  1  0
 23 24  1  0
 24 25  1  0
 25 26  2  0
 26 27  1  0
 27 28  2  0
 28 29  1  0
 29 30  2  0
 24 31  1  0
 31 32  2  0
 31 33  2  0
  9  4  1  0
 20 12  2  0
 31 21  1  0
 19 15  1  0
 30 25  1  0
  1 34  1  0
  1 35  1  0
  1 36  1  0
  3 37  1  0
  3 38  1  0
  5 39  1  0
  6 40  1  0
  7 41  1  0
  8 42  1  0
  9 43  1  0
 13 44  1  0
 14 45  1  0
 18 46  1  0
 22 47  1  0
 22 48  1  0
 23 49  1  0
 23 50  1  0
 24 51  1  0
 26 52  1  0
 27 53  1  0
 28 54  1  0
 29 55  1  0
 30 56  1  0
M  END
>  <Energy>  (440) 
156.98315156397334

>  <compound_id>  (440) 
3873

>  <target_id>  (440) 
1

>  <reference_id>  (440) 
59

>  <inspiration_ids>  (440) 
[144, 59]

>  <energy_score>  (440) 
36.51159745596698

>  <distance_score>  (440) 
1.25371327281148

>  <path>  (440) 
/opt/xchem-fragalysis-2/maxwin/BulkDock/SCRATCH/505735/C3873-P59/C3873-P59.minimised.mol

>  <scratch_subdir>  (440) 
/opt/xchem-fragalysis-2/maxwin/BulkDock/SCRATCH/505735/C3873-P59

>  <fragmenstein_runtime>  (440) 
8.609994888305664

>  <fragmenstein_outcome>  (440) 
too moved

>  <fragmenstein_mode>  (440) 
expansion

>  <fragmenstein_error>  (440) 


$$$$
C3873-P144
     RDKit          2D

  0  0  0  0  0  0  0  0  0  0999 V2000
M  END
>  <compound_id>  (441) 
3873

>  <target_id>  (441) 
1

>  <reference_id>  (441) 
144

>  <inspiration_ids>  (441) 
[144, 72]

>  <energy_score>  (441) 
nan

>  <distance_score>  (441) 
nan

>  <path>  (441) 
/opt/xchem-fragalysis-2/maxwin/BulkDock/SCRATCH/505735/C3873-P144/C3873-P144.minimised.mol

>  <scratch_subdir>  (441) 
/opt/xchem-fragalysis-2/maxwin/BulkDock/SCRATCH/505735/C3873-P144

>  <fragmenstein_runtime>  (441) 
0.3987898826599121

>  <fragmenstein_outcome>  (441) 
too distant

>  <fragmenstein_mode>  (441) 
expansion

>  <fragmenstein_error>  (441) 
DistanceError: hit0+hit1

$$$$
C4047-P144
     RDKit          3D

 67 72  0  0  0  0  0  0  0  0999 V2000
    2.4000   -3.8829   34.2439 O   0  0  0  0  0  0  0  0  0  0  0  0
    1.6624   -3.6460   33.3598 C   0  0  0  0  0  0  0  0  0  0  0  0
    0.7744   -4.7008   32.7390 C   0  0  0  0  0  0  0  0  0  0  0  0
    0.7466   -4.7582   31.2680 C   0  0  0  0  0  0  0  0  0  0  0  0
    0.0793   -5.7064   30.5966 C   0  0  0  0  0  0  0  0  0  0  0  0
   -0.6174   -6.7011   31.3130 C   0  0  0  0  0  0  0  0  0  0  0  0
   -1.3414   -7.7141   30.9016 N   0  0  0  0  0  0  0  0  0  0  0  0
   -1.8404   -8.3364   32.0106 N   0  0  0  0  0  0  0  0  0  0  0  0
   -1.4044   -7.6912   33.0718 C   0  0  0  0  0  0  0  0  0  0  0  0
   -0.6016   -6.6435   32.7008 N   0  0  0  0  0  0  0  0  0  0  0  0
    0.0901   -5.6506   33.4299 C   0  0  0  0  0  0  0  0  0  0  0  0
    0.0772   -5.6266   34.8574 N   0  0  0  0  0  0  0  0  0  0  0  0
   -0.1792   -4.4699   35.7404 C   0  0  0  0  0  0  0  0  0  0  0  0
    0.1151   -4.9235   37.1735 C   0  0  0  0  0  0  0  0  0  0  0  0
    1.2541   -5.9511   37.0926 C   0  0  0  0  0  0  0  0  0  0  0  0
    1.4969   -6.8247   38.3000 C   0  0  0  0  0  0  0  0  0  0  0  0
    2.7583   -7.4187   38.4714 C   0  0  0  0  0  0  0  0  0  0  0  0
    3.0193   -8.2448   39.5674 C   0  0  0  0  0  0  0  0  0  0  0  0
    2.0241   -8.4960   40.5072 C   0  0  0  0  0  0  0  0  0  0  0  0
    0.7681   -7.9204   40.3524 C   0  0  0  0  0  0  0  0  0  0  0  0
    0.5083   -7.0894   39.2611 C   0  0  0  0  0  0  0  0  0  0  0  0
    0.7433   -6.9643   35.6937 S   0  0  0  0  0  0  0  0  0  0  0  0
    1.8549   -7.4801   34.9182 O   0  0  0  0  0  0  0  0  0  0  0  0
   -0.3826   -7.7887   36.0625 O   0  0  0  0  0  0  0  0  0  0  0  0
    1.4448   -2.3630   32.5802 N   0  0  0  0  0  0  0  0  0  0  0  0
    2.1748   -1.0462   32.6356 C   0  0  0  0  0  0  0  0  0  0  0  0
    1.8405   -0.0640   31.5085 C   0  0  0  0  0  0  0  0  0  0  0  0
    0.4883    0.5541   31.7851 C   0  0  0  0  0  0  0  0  0  0  0  0
   -0.4287   -0.5650   32.2675 C   0  0  0  0  0  0  0  0  0  0  0  0
   -1.7249   -0.0639   32.8801 C   0  0  0  0  0  0  0  0  0  0  0  0
   -2.9404   -0.6450   32.4889 C   0  0  0  0  0  0  0  0  0  0  0  0
   -4.1547   -0.2187   33.0375 C   0  0  0  0  0  0  0  0  0  0  0  0
   -4.1836    0.8059   33.9877 C   0  0  0  0  0  0  0  0  0  0  0  0
   -5.4814    1.2548   34.6020 C   0  0  0  0  0  0  0  0  0  0  0  0
   -5.6163    2.6629   34.4684 O   0  0  0  0  0  0  0  0  0  0  0  0
   -2.9717    1.3777   34.3930 C   0  0  0  0  0  0  0  0  0  0  0  0
   -1.7570    0.9432   33.8536 C   0  0  0  0  0  0  0  0  0  0  0  0
    0.3608   -1.4914   33.2348 C   0  0  0  0  0  0  0  0  0  0  0  0
    1.2909   -3.9989   30.7110 H   0  0  0  0  0  0  0  0  0  0  0  0
    0.0490   -5.7147   29.5150 H   0  0  0  0  0  0  0  0  0  0  0  0
   -1.6509   -7.9449   34.0912 H   0  0  0  0  0  0  0  0  0  0  0  0
    0.4461   -3.6087   35.5182 H   0  0  0  0  0  0  0  0  0  0  0  0
   -1.2205   -4.1503   35.6577 H   0  0  0  0  0  0  0  0  0  0  0  0
   -0.8061   -5.3668   37.5676 H   0  0  0  0  0  0  0  0  0  0  0  0
    0.3696   -4.0795   37.8230 H   0  0  0  0  0  0  0  0  0  0  0  0
    2.1808   -5.4430   36.7980 H   0  0  0  0  0  0  0  0  0  0  0  0
    3.5522   -7.2501   37.7454 H   0  0  0  0  0  0  0  0  0  0  0  0
    3.9999   -8.6993   39.6811 H   0  0  0  0  0  0  0  0  0  0  0  0
    2.2231   -9.1468   41.3535 H   0  0  0  0  0  0  0  0  0  0  0  0
   -0.0176   -8.1283   41.0739 H   0  0  0  0  0  0  0  0  0  0  0  0
   -0.4934   -6.6783   39.1782 H   0  0  0  0  0  0  0  0  0  0  0  0
    2.3475   -0.6000   33.6304 H   0  0  0  0  0  0  0  0  0  0  0  0
    3.2002   -1.3772   32.4028 H   0  0  0  0  0  0  0  0  0  0  0  0
    1.8239   -0.5919   30.5471 H   0  0  0  0  0  0  0  0  0  0  0  0
    2.6050    0.7176   31.4405 H   0  0  0  0  0  0  0  0  0  0  0  0
    0.0848    1.0461   30.8930 H   0  0  0  0  0  0  0  0  0  0  0  0
    0.6158    1.3326   32.5454 H   0  0  0  0  0  0  0  0  0  0  0  0
   -0.6840   -1.1668   31.3824 H   0  0  0  0  0  0  0  0  0  0  0  0
   -2.9542   -1.4437   31.7493 H   0  0  0  0  0  0  0  0  0  0  0  0
   -5.0779   -0.6980   32.7169 H   0  0  0  0  0  0  0  0  0  0  0  0
   -5.4892    1.0031   35.6676 H   0  0  0  0  0  0  0  0  0  0  0  0
   -6.3473    0.7720   34.1359 H   0  0  0  0  0  0  0  0  0  0  0  0
   -5.9702    2.8098   33.5631 H   0  0  0  0  0  0  0  0  0  0  0  0
   -2.9737    2.1665   35.1444 H   0  0  0  0  0  0  0  0  0  0  0  0
   -0.8420    1.4064   34.2151 H   0  0  0  0  0  0  0  0  0  0  0  0
    0.6105   -1.0621   34.2221 H   0  0  0  0  0  0  0  0  0  0  0  0
   -0.3858   -2.2426   33.5435 H   0  0  0  0  0  0  0  0  0  0  0  0
  1  2  2  0
  2  3  1  0
  3  4  1  0
  4  5  2  0
  5  6  1  0
  6  7  2  0
  7  8  1  0
  8  9  2  0
  9 10  1  0
 10 11  1  0
 11 12  1  0
 12 13  1  0
 13 14  1  0
 14 15  1  0
 15 16  1  0
 16 17  2  0
 17 18  1  0
 18 19  2  0
 19 20  1  0
 20 21  2  0
 15 22  1  0
 22 23  2  0
 22 24  2  0
  2 25  1  0
 25 26  1  0
 26 27  1  0
 27 28  1  0
 28 29  1  0
 29 30  1  0
 30 31  2  0
 31 32  1  0
 32 33  2  0
 33 34  1  0
 34 35  1  0
 33 36  1  0
 36 37  2  0
 29 38  1  0
 11  3  2  0
 22 12  1  0
 38 25  1  0
 10  6  1  0
 21 16  1  0
 37 30  1  0
  4 39  1  0
  5 40  1  0
  9 41  1  0
 13 42  1  0
 13 43  1  0
 14 44  1  0
 14 45  1  0
 15 46  1  0
 17 47  1  0
 18 48  1  0
 19 49  1  0
 20 50  1  0
 21 51  1  0
 26 52  1  0
 26 53  1  0
 27 54  1  0
 27 55  1  0
 28 56  1  0
 28 57  1  0
 29 58  1  0
 31 59  1  0
 32 60  1  0
 34 61  1  0
 34 62  1  0
 35 63  1  0
 36 64  1  0
 37 65  1  0
 38 66  1  0
 38 67  1  0
M  END
>  <Energy>  (442) 
174.77918477685265

>  <compound_id>  (442) 
4047

>  <target_id>  (442) 
1

>  <reference_id>  (442) 
144

>  <inspiration_ids>  (442) 
[144, 128]

>  <energy_score>  (442) 
28.93210279717985

>  <distance_score>  (442) 
0.7213521695058542

>  <path>  (442) 
/opt/xchem-fragalysis-2/maxwin/BulkDock/SCRATCH/505735/C4047-P144/C4047-P144.minimised.mol

>  <scratch_subdir>  (442) 
/opt/xchem-fragalysis-2/maxwin/BulkDock/SCRATCH/505735/C4047-P144

>  <fragmenstein_runtime>  (442) 
5.69731593132019

>  <fragmenstein_outcome>  (442) 
too contorted

>  <fragmenstein_mode>  (442) 
expansion

>  <fragmenstein_error>  (442) 


$$$$
C4047-P128
     RDKit          3D

 67 72  0  0  0  0  0  0  0  0999 V2000
    1.9893   -3.4150   34.3895 O   0  0  0  0  0  0  0  0  0  0  0  0
    1.2153   -3.3789   33.5065 C   0  0  0  0  0  0  0  0  0  0  0  0
    0.6540   -4.6016   32.8271 C   0  0  0  0  0  0  0  0  0  0  0  0
    0.6524   -4.6177   31.3593 C   0  0  0  0  0  0  0  0  0  0  0  0
    0.1014   -5.6181   30.6578 C   0  0  0  0  0  0  0  0  0  0  0  0
   -0.5177   -6.6871   31.3427 C   0  0  0  0  0  0  0  0  0  0  0  0
   -1.1989   -7.7197   30.9023 N   0  0  0  0  0  0  0  0  0  0  0  0
   -1.6490   -8.4032   31.9959 N   0  0  0  0  0  0  0  0  0  0  0  0
   -1.2233   -7.7790   33.0744 C   0  0  0  0  0  0  0  0  0  0  0  0
   -0.4790   -6.6837   32.7341 N   0  0  0  0  0  0  0  0  0  0  0  0
    0.1296   -5.6626   33.4899 C   0  0  0  0  0  0  0  0  0  0  0  0
    0.2700   -5.6758   34.9038 N   0  0  0  0  0  0  0  0  0  0  0  0
   -0.3675   -4.8004   35.8892 C   0  0  0  0  0  0  0  0  0  0  0  0
    0.5991   -4.7688   37.0880 C   0  0  0  0  0  0  0  0  0  0  0  0
    1.5049   -6.0237   37.0654 C   0  0  0  0  0  0  0  0  0  0  0  0
    1.5834   -6.8525   38.3233 C   0  0  0  0  0  0  0  0  0  0  0  0
    2.8035   -7.4509   38.6781 C   0  0  0  0  0  0  0  0  0  0  0  0
    2.9056   -8.2422   39.8240 C   0  0  0  0  0  0  0  0  0  0  0  0
    1.7900   -8.4518   40.6295 C   0  0  0  0  0  0  0  0  0  0  0  0
    0.5723   -7.8706   40.2900 C   0  0  0  0  0  0  0  0  0  0  0  0
    0.4704   -7.0758   39.1470 C   0  0  0  0  0  0  0  0  0  0  0  0
    0.9057   -7.0298   35.7007 S   0  0  0  0  0  0  0  0  0  0  0  0
    1.9819   -7.5830   34.9024 O   0  0  0  0  0  0  0  0  0  0  0  0
   -0.2453   -7.7968   36.1110 O   0  0  0  0  0  0  0  0  0  0  0  0
    0.5443   -2.1942   32.8371 N   0  0  0  0  0  0  0  0  0  0  0  0
    0.7445   -0.7169   33.0330 C   0  0  0  0  0  0  0  0  0  0  0  0
    0.0600    0.2025   32.0119 C   0  0  0  0  0  0  0  0  0  0  0  0
   -1.2443   -0.3939   31.5216 C   0  0  0  0  0  0  0  0  0  0  0  0
   -1.8707   -1.2581   32.6085 C   0  0  0  0  0  0  0  0  0  0  0  0
   -2.9540   -0.5530   33.4052 C   0  0  0  0  0  0  0  0  0  0  0  0
   -2.6844    0.5543   34.2205 C   0  0  0  0  0  0  0  0  0  0  0  0
   -3.7163    1.2095   34.8994 C   0  0  0  0  0  0  0  0  0  0  0  0
   -5.0406    0.7724   34.7782 C   0  0  0  0  0  0  0  0  0  0  0  0
   -6.1532    1.5056   35.4797 C   0  0  0  0  0  0  0  0  0  0  0  0
   -5.9911    1.4141   36.8912 O   0  0  0  0  0  0  0  0  0  0  0  0
   -5.3101   -0.3512   33.9926 C   0  0  0  0  0  0  0  0  0  0  0  0
   -4.2772   -1.0107   33.3231 C   0  0  0  0  0  0  0  0  0  0  0  0
   -0.7726   -1.8433   33.5254 C   0  0  0  0  0  0  0  0  0  0  0  0
    1.1153   -3.7818   30.8391 H   0  0  0  0  0  0  0  0  0  0  0  0
    0.0884   -5.5997   29.5767 H   0  0  0  0  0  0  0  0  0  0  0  0
   -1.4491   -8.0700   34.0885 H   0  0  0  0  0  0  0  0  0  0  0  0
   -0.5406   -3.7876   35.5349 H   0  0  0  0  0  0  0  0  0  0  0  0
   -1.3360   -5.2213   36.1821 H   0  0  0  0  0  0  0  0  0  0  0  0
    0.0438   -4.6317   38.0209 H   0  0  0  0  0  0  0  0  0  0  0  0
    1.2436   -3.8839   37.0044 H   0  0  0  0  0  0  0  0  0  0  0  0
    2.5128   -5.6993   36.7737 H   0  0  0  0  0  0  0  0  0  0  0  0
    3.6888   -7.3135   38.0599 H   0  0  0  0  0  0  0  0  0  0  0  0
    3.8553   -8.7027   40.0828 H   0  0  0  0  0  0  0  0  0  0  0  0
    1.8649   -9.0777   41.5140 H   0  0  0  0  0  0  0  0  0  0  0  0
   -0.3052   -8.0514   40.9050 H   0  0  0  0  0  0  0  0  0  0  0  0
   -0.5020   -6.6601   38.8967 H   0  0  0  0  0  0  0  0  0  0  0  0
    1.8199   -0.6160   32.8114 H   0  0  0  0  0  0  0  0  0  0  0  0
    0.7545   -0.3418   34.0718 H   0  0  0  0  0  0  0  0  0  0  0  0
   -0.1071    1.1840   32.4694 H   0  0  0  0  0  0  0  0  0  0  0  0
    0.7197    0.3738   31.1525 H   0  0  0  0  0  0  0  0  0  0  0  0
   -1.0089   -1.0423   30.6658 H   0  0  0  0  0  0  0  0  0  0  0  0
   -1.9236    0.3696   31.1353 H   0  0  0  0  0  0  0  0  0  0  0  0
   -2.3434   -2.1026   32.0846 H   0  0  0  0  0  0  0  0  0  0  0  0
   -1.6728    0.9362   34.3304 H   0  0  0  0  0  0  0  0  0  0  0  0
   -3.4872    2.0765   35.5175 H   0  0  0  0  0  0  0  0  0  0  0  0
   -7.1309    1.0831   35.2273 H   0  0  0  0  0  0  0  0  0  0  0  0
   -6.1575    2.5615   35.1906 H   0  0  0  0  0  0  0  0  0  0  0  0
   -5.5118    0.5871   37.0704 H   0  0  0  0  0  0  0  0  0  0  0  0
   -6.3317   -0.7109   33.8788 H   0  0  0  0  0  0  0  0  0  0  0  0
   -4.5256   -1.8821   32.7200 H   0  0  0  0  0  0  0  0  0  0  0  0
   -0.6938   -1.4344   34.5491 H   0  0  0  0  0  0  0  0  0  0  0  0
   -1.1964   -2.8282   33.7747 H   0  0  0  0  0  0  0  0  0  0  0  0
  1  2  2  0
  2  3  1  0
  3  4  1  0
  4  5  2  0
  5  6  1  0
  6  7  2  0
  7  8  1  0
  8  9  2  0
  9 10  1  0
 10 11  1  0
 11 12  1  0
 12 13  1  0
 13 14  1  0
 14 15  1  0
 15 16  1  0
 16 17  2  0
 17 18  1  0
 18 19  2  0
 19 20  1  0
 20 21  2  0
 15 22  1  0
 22 23  2  0
 22 24  2  0
  2 25  1  0
 25 26  1  0
 26 27  1  0
 27 28  1  0
 28 29  1  0
 29 30  1  0
 30 31  2  0
 31 32  1  0
 32 33  2  0
 33 34  1  0
 34 35  1  0
 33 36  1  0
 36 37  2  0
 29 38  1  0
 11  3  2  0
 22 12  1  0
 38 25  1  0
 10  6  1  0
 21 16  1  0
 37 30  1  0
  4 39  1  0
  5 40  1  0
  9 41  1  0
 13 42  1  0
 13 43  1  0
 14 44  1  0
 14 45  1  0
 15 46  1  0
 17 47  1  0
 18 48  1  0
 19 49  1  0
 20 50  1  0
 21 51  1  0
 26 52  1  0
 26 53  1  0
 27 54  1  0
 27 55  1  0
 28 56  1  0
 28 57  1  0
 29 58  1  0
 31 59  1  0
 32 60  1  0
 34 61  1  0
 34 62  1  0
 35 63  1  0
 36 64  1  0
 37 65  1  0
 38 66  1  0
 38 67  1  0
M  END
>  <Energy>  (443) 
183.79618678409395

>  <compound_id>  (443) 
4047

>  <target_id>  (443) 
1

>  <reference_id>  (443) 
128

>  <inspiration_ids>  (443) 
[144, 128]

>  <energy_score>  (443) 
37.94910480442317

>  <distance_score>  (443) 
1.1344923491290102

>  <path>  (443) 
/opt/xchem-fragalysis-2/maxwin/BulkDock/SCRATCH/505735/C4047-P128/C4047-P128.minimised.mol

>  <scratch_subdir>  (443) 
/opt/xchem-fragalysis-2/maxwin/BulkDock/SCRATCH/505735/C4047-P128

>  <fragmenstein_runtime>  (443) 
6.919611930847168

>  <fragmenstein_outcome>  (443) 
too moved

>  <fragmenstein_mode>  (443) 
expansion

>  <fragmenstein_error>  (443) 


$$$$
C4118-P144
     RDKit          3D

 57 62  0  0  0  0  0  0  0  0999 V2000
    1.7015   -7.4811   34.8022 O   0  0  0  0  0  0  0  0  0  0  0  0
    0.6379   -6.9434   35.6318 S   0  0  0  0  0  0  0  0  0  0  0  0
   -0.4858   -7.7331   36.0695 O   0  0  0  0  0  0  0  0  0  0  0  0
    1.3075   -5.9648   36.9910 C   0  0  0  0  0  0  0  0  0  0  0  0
    1.4589   -6.8094   38.2303 C   0  0  0  0  0  0  0  0  0  0  0  0
    2.6785   -7.4665   38.4667 C   0  0  0  0  0  0  0  0  0  0  0  0
    2.8576   -8.2617   39.6011 C   0  0  0  0  0  0  0  0  0  0  0  0
    1.8194   -8.4195   40.5139 C   0  0  0  0  0  0  0  0  0  0  0  0
    0.6027   -7.7828   40.2924 C   0  0  0  0  0  0  0  0  0  0  0  0
    0.4244   -6.9820   39.1621 C   0  0  0  0  0  0  0  0  0  0  0  0
    0.3628   -4.7623   37.0480 C   0  0  0  0  0  0  0  0  0  0  0  0
    0.1773   -4.3345   35.5931 C   0  0  0  0  0  0  0  0  0  0  0  0
   -0.0344   -5.5775   34.8152 N   0  0  0  0  0  0  0  0  0  0  0  0
   -0.1924   -5.6504   33.3905 C   0  0  0  0  0  0  0  0  0  0  0  0
    0.1185   -4.5403   32.6843 C   0  0  0  0  0  0  0  0  0  0  0  0
    0.0219   -4.5340   31.2231 C   0  0  0  0  0  0  0  0  0  0  0  0
    0.1828   -3.3177   30.5705 N   0  0  0  0  0  0  0  0  0  0  0  0
   -1.0283   -2.5485   30.1839 C   0  0  0  0  0  0  0  0  0  0  0  0
   -0.7353   -1.1990   29.6454 C   0  0  0  0  0  0  0  0  0  0  0  0
   -1.3278   -0.5334   28.6783 N   0  0  0  0  0  0  0  0  0  0  0  0
   -0.5765    0.6181   28.5531 C   0  0  0  0  0  0  0  0  0  0  0  0
   -0.8104    1.6387   27.5310 C   0  0  0  0  0  0  0  0  0  0  0  0
   -1.7768    1.4505   26.5394 C   0  0  0  0  0  0  0  0  0  0  0  0
   -2.0748    2.4638   25.6230 C   0  0  0  0  0  0  0  0  0  0  0  0
   -1.3813    3.6696   25.6673 C   0  0  0  0  0  0  0  0  0  0  0  0
   -0.3781    3.8561   26.6135 C   0  0  0  0  0  0  0  0  0  0  0  0
   -0.0892    2.8442   27.5336 C   0  0  0  0  0  0  0  0  0  0  0  0
    0.3951    0.7180   29.4810 N   0  0  0  0  0  0  0  0  0  0  0  0
    0.2924   -0.4480   30.1246 N   0  0  0  0  0  0  0  0  0  0  0  0
   -0.2280   -5.6838   30.5697 C   0  0  0  0  0  0  0  0  0  0  0  0
   -0.6594   -6.8202   31.2903 C   0  0  0  0  0  0  0  0  0  0  0  0
   -1.1941   -7.9413   30.8720 N   0  0  0  0  0  0  0  0  0  0  0  0
   -1.6252   -8.6208   31.9746 N   0  0  0  0  0  0  0  0  0  0  0  0
   -1.3170   -7.9128   33.0407 C   0  0  0  0  0  0  0  0  0  0  0  0
   -0.6716   -6.7628   32.6780 N   0  0  0  0  0  0  0  0  0  0  0  0
    2.2939   -5.6147   36.6584 H   0  0  0  0  0  0  0  0  0  0  0  0
    3.5049   -7.3730   37.7645 H   0  0  0  0  0  0  0  0  0  0  0  0
    3.8060   -8.7660   39.7667 H   0  0  0  0  0  0  0  0  0  0  0  0
    1.9517   -9.0474   41.3903 H   0  0  0  0  0  0  0  0  0  0  0  0
   -0.2171   -7.9202   40.9930 H   0  0  0  0  0  0  0  0  0  0  0  0
   -0.5503   -6.5222   39.0206 H   0  0  0  0  0  0  0  0  0  0  0  0
    0.7675   -3.9519   37.6624 H   0  0  0  0  0  0  0  0  0  0  0  0
   -0.6188   -5.0304   37.4549 H   0  0  0  0  0  0  0  0  0  0  0  0
    1.0785   -3.8152   35.2497 H   0  0  0  0  0  0  0  0  0  0  0  0
   -0.6854   -3.6679   35.4996 H   0  0  0  0  0  0  0  0  0  0  0  0
    0.4771   -3.6215   33.1303 H   0  0  0  0  0  0  0  0  0  0  0  0
    0.6556   -3.4939   29.6758 H   0  0  0  0  0  0  0  0  0  0  0  0
   -1.6809   -2.4396   31.0589 H   0  0  0  0  0  0  0  0  0  0  0  0
   -1.5828   -3.1166   29.4304 H   0  0  0  0  0  0  0  0  0  0  0  0
   -2.2979    0.5007   26.4616 H   0  0  0  0  0  0  0  0  0  0  0  0
   -2.8667    2.3237   24.8903 H   0  0  0  0  0  0  0  0  0  0  0  0
   -1.6393    4.4685   24.9757 H   0  0  0  0  0  0  0  0  0  0  0  0
    0.1557    4.8015   26.6587 H   0  0  0  0  0  0  0  0  0  0  0  0
    0.6794    3.0235   28.2819 H   0  0  0  0  0  0  0  0  0  0  0  0
    0.9579   -0.6860   30.8513 H   0  0  0  0  0  0  0  0  0  0  0  0
   -0.2938   -5.7154   29.4890 H   0  0  0  0  0  0  0  0  0  0  0  0
   -1.5690   -8.1875   34.0532 H   0  0  0  0  0  0  0  0  0  0  0  0
  1  2  2  0
  2  3  2  0
  2  4  1  0
  4  5  1  0
  5  6  2  0
  6  7  1  0
  7  8  2  0
  8  9  1  0
  9 10  2  0
  4 11  1  0
 11 12  1  0
 12 13  1  0
 13 14  1  0
 14 15  2  0
 15 16  1  0
 16 17  1  0
 17 18  1  0
 18 19  1  0
 19 20  2  0
 20 21  1  0
 21 22  1  0
 22 23  2  0
 23 24  1  0
 24 25  2  0
 25 26  1  0
 26 27  2  0
 21 28  2  0
 28 29  1  0
 16 30  2  0
 30 31  1  0
 31 32  2  0
 32 33  1  0
 33 34  2  0
 34 35  1  0
 13  2  1  0
 35 14  1  0
 10  5  1  0
 29 19  1  0
 35 31  1  0
 27 22  1  0
  4 36  1  0
  6 37  1  0
  7 38  1  0
  8 39  1  0
  9 40  1  0
 10 41  1  0
 11 42  1  0
 11 43  1  0
 12 44  1  0
 12 45  1  0
 15 46  1  0
 17 47  1  0
 18 48  1  0
 18 49  1  0
 23 50  1  0
 24 51  1  0
 25 52  1  0
 26 53  1  0
 27 54  1  0
 29 55  1  0
 30 56  1  0
 34 57  1  0
M  END
>  <Energy>  (444) 
87.454786027480026

>  <compound_id>  (444) 
4118

>  <target_id>  (444) 
1

>  <reference_id>  (444) 
144

>  <inspiration_ids>  (444) 
[144, 130]

>  <energy_score>  (444) 
-59.22651902416578

>  <distance_score>  (444) 
1.053935541674044

>  <path>  (444) 
/opt/xchem-fragalysis-2/maxwin/BulkDock/SCRATCH/505735/C4118-P144/C4118-P144.minimised.mol

>  <scratch_subdir>  (444) 
/opt/xchem-fragalysis-2/maxwin/BulkDock/SCRATCH/505735/C4118-P144

>  <fragmenstein_runtime>  (444) 
46.65126991271973

>  <fragmenstein_outcome>  (444) 
too moved

>  <fragmenstein_mode>  (444) 
expansion

>  <fragmenstein_error>  (444) 


$$$$
C4118-P130
     RDKit          3D

 57 62  0  0  0  0  0  0  0  0999 V2000
    1.7842   -7.3935   34.8706 O   0  0  0  0  0  0  0  0  0  0  0  0
    0.6787   -6.9296   35.6884 S   0  0  0  0  0  0  0  0  0  0  0  0
   -0.4061   -7.7997   36.0775 O   0  0  0  0  0  0  0  0  0  0  0  0
    1.2728   -5.9573   37.0931 C   0  0  0  0  0  0  0  0  0  0  0  0
    1.4303   -6.8374   38.3051 C   0  0  0  0  0  0  0  0  0  0  0  0
    2.6012   -7.6028   38.4423 C   0  0  0  0  0  0  0  0  0  0  0  0
    2.7744   -8.4575   39.5319 C   0  0  0  0  0  0  0  0  0  0  0  0
    1.7802   -8.5649   40.4988 C   0  0  0  0  0  0  0  0  0  0  0  0
    0.6201   -7.8064   40.3860 C   0  0  0  0  0  0  0  0  0  0  0  0
    0.4491   -6.9434   39.3022 C   0  0  0  0  0  0  0  0  0  0  0  0
    0.2718   -4.8021   37.1558 C   0  0  0  0  0  0  0  0  0  0  0  0
    0.1030   -4.3451   35.7100 C   0  0  0  0  0  0  0  0  0  0  0  0
   -0.0517   -5.5783   34.9014 N   0  0  0  0  0  0  0  0  0  0  0  0
   -0.1930   -5.6129   33.4738 C   0  0  0  0  0  0  0  0  0  0  0  0
    0.0468   -4.4629   32.8099 C   0  0  0  0  0  0  0  0  0  0  0  0
   -0.0893   -4.3977   31.3515 C   0  0  0  0  0  0  0  0  0  0  0  0
   -0.1285   -3.1427   30.7880 N   0  0  0  0  0  0  0  0  0  0  0  0
    0.0049   -2.7963   29.3828 C   0  0  0  0  0  0  0  0  0  0  0  0
   -0.8100   -1.6458   28.9294 C   0  0  0  0  0  0  0  0  0  0  0  0
   -0.6055   -0.3554   29.1175 N   0  0  0  0  0  0  0  0  0  0  0  0
   -1.4604    0.2357   28.2080 C   0  0  0  0  0  0  0  0  0  0  0  0
   -1.4544    1.6547   27.8770 C   0  0  0  0  0  0  0  0  0  0  0  0
   -0.5823    2.5313   28.5232 C   0  0  0  0  0  0  0  0  0  0  0  0
   -0.5454    3.8853   28.1786 C   0  0  0  0  0  0  0  0  0  0  0  0
   -1.3824    4.3735   27.1785 C   0  0  0  0  0  0  0  0  0  0  0  0
   -2.2589    3.5123   26.5247 C   0  0  0  0  0  0  0  0  0  0  0  0
   -2.2956    2.1618   26.8731 C   0  0  0  0  0  0  0  0  0  0  0  0
   -2.2461   -0.6387   27.5819 N   0  0  0  0  0  0  0  0  0  0  0  0
   -1.8456   -1.8093   28.0625 N   0  0  0  0  0  0  0  0  0  0  0  0
   -0.2472   -5.5454   30.6611 C   0  0  0  0  0  0  0  0  0  0  0  0
   -0.5899   -6.7384   31.3349 C   0  0  0  0  0  0  0  0  0  0  0  0
   -1.0666   -7.8764   30.8809 N   0  0  0  0  0  0  0  0  0  0  0  0
   -1.4821   -8.5966   31.9640 N   0  0  0  0  0  0  0  0  0  0  0  0
   -1.2261   -7.8889   33.0441 C   0  0  0  0  0  0  0  0  0  0  0  0
   -0.6101   -6.7175   32.7197 N   0  0  0  0  0  0  0  0  0  0  0  0
    2.2518   -5.5556   36.7998 H   0  0  0  0  0  0  0  0  0  0  0  0
    3.3879   -7.5580   37.6914 H   0  0  0  0  0  0  0  0  0  0  0  0
    3.6734   -9.0625   39.6152 H   0  0  0  0  0  0  0  0  0  0  0  0
    1.8972   -9.2596   41.3266 H   0  0  0  0  0  0  0  0  0  0  0  0
   -0.1607   -7.9045   41.1358 H   0  0  0  0  0  0  0  0  0  0  0  0
   -0.4781   -6.3802   39.2552 H   0  0  0  0  0  0  0  0  0  0  0  0
    0.6204   -3.9910   37.8028 H   0  0  0  0  0  0  0  0  0  0  0  0
   -0.7071   -5.1291   37.5254 H   0  0  0  0  0  0  0  0  0  0  0  0
    0.9928   -3.7883   35.3966 H   0  0  0  0  0  0  0  0  0  0  0  0
   -0.7808   -3.7069   35.6147 H   0  0  0  0  0  0  0  0  0  0  0  0
    0.3479   -3.5453   33.2980 H   0  0  0  0  0  0  0  0  0  0  0  0
    0.0529   -2.3511   31.4019 H   0  0  0  0  0  0  0  0  0  0  0  0
   -0.2220   -3.6514   28.7383 H   0  0  0  0  0  0  0  0  0  0  0  0
    1.0599   -2.5605   29.1955 H   0  0  0  0  0  0  0  0  0  0  0  0
    0.0839    2.1656   29.3006 H   0  0  0  0  0  0  0  0  0  0  0  0
    0.1245    4.5631   28.7009 H   0  0  0  0  0  0  0  0  0  0  0  0
   -1.3663    5.4281   26.9162 H   0  0  0  0  0  0  0  0  0  0  0  0
   -2.9262    3.8939   25.7547 H   0  0  0  0  0  0  0  0  0  0  0  0
   -2.9922    1.5067   26.3540 H   0  0  0  0  0  0  0  0  0  0  0  0
   -2.2702   -2.6621   27.6983 H   0  0  0  0  0  0  0  0  0  0  0  0
   -0.3345   -5.5615   29.5865 H   0  0  0  0  0  0  0  0  0  0  0  0
   -1.5051   -8.1585   34.0483 H   0  0  0  0  0  0  0  0  0  0  0  0
  1  2  2  0
  2  3  2  0
  2  4  1  0
  4  5  1  0
  5  6  2  0
  6  7  1  0
  7  8  2  0
  8  9  1  0
  9 10  2  0
  4 11  1  0
 11 12  1  0
 12 13  1  0
 13 14  1  0
 14 15  2  0
 15 16  1  0
 16 17  1  0
 17 18  1  0
 18 19  1  0
 19 20  2  0
 20 21  1  0
 21 22  1  0
 22 23  2  0
 23 24  1  0
 24 25  2  0
 25 26  1  0
 26 27  2  0
 21 28  2  0
 28 29  1  0
 16 30  2  0
 30 31  1  0
 31 32  2  0
 32 33  1  0
 33 34  2  0
 34 35  1  0
 13  2  1  0
 35 14  1  0
 10  5  1  0
 29 19  1  0
 35 31  1  0
 27 22  1  0
  4 36  1  0
  6 37  1  0
  7 38  1  0
  8 39  1  0
  9 40  1  0
 10 41  1  0
 11 42  1  0
 11 43  1  0
 12 44  1  0
 12 45  1  0
 15 46  1  0
 17 47  1  0
 18 48  1  0
 18 49  1  0
 23 50  1  0
 24 51  1  0
 25 52  1  0
 26 53  1  0
 27 54  1  0
 29 55  1  0
 30 56  1  0
 34 57  1  0
M  END
>  <Energy>  (445) 
87.933569104965542

>  <compound_id>  (445) 
4118

>  <target_id>  (445) 
1

>  <reference_id>  (445) 
130

>  <inspiration_ids>  (445) 
[144, 130]

>  <energy_score>  (445) 
-58.74773594667977

>  <distance_score>  (445) 
0.7959177401463647

>  <path>  (445) 
/opt/xchem-fragalysis-2/maxwin/BulkDock/SCRATCH/505735/C4118-P130/C4118-P130.minimised.mol

>  <scratch_subdir>  (445) 
/opt/xchem-fragalysis-2/maxwin/BulkDock/SCRATCH/505735/C4118-P130

>  <fragmenstein_runtime>  (445) 
41.78609871864319

>  <fragmenstein_outcome>  (445) 
acceptable

>  <fragmenstein_mode>  (445) 
expansion

>  <fragmenstein_error>  (445) 


$$$$
C4119-P144
     RDKit          3D

 53 57  0  0  0  0  0  0  0  0999 V2000
   -2.0333   -7.9590   34.3845 N   0  0  0  0  0  0  0  0  0  0  0  0
   -1.4911   -7.7232   33.1714 C   0  0  0  0  0  0  0  0  0  0  0  0
   -1.7106   -8.4286   32.0845 N   0  0  0  0  0  0  0  0  0  0  0  0
   -1.0821   -7.8283   31.0363 N   0  0  0  0  0  0  0  0  0  0  0  0
   -0.4814   -6.7605   31.5033 C   0  0  0  0  0  0  0  0  0  0  0  0
   -0.6422   -6.6797   32.8731 N   0  0  0  0  0  0  0  0  0  0  0  0
   -0.3623   -5.4612   33.6528 C   0  0  0  0  0  0  0  0  0  0  0  0
    0.2367   -5.5494   35.0070 N   0  0  0  0  0  0  0  0  0  0  0  0
    0.0430   -4.4111   35.9293 C   0  0  0  0  0  0  0  0  0  0  0  0
    0.3473   -4.9234   37.3335 C   0  0  0  0  0  0  0  0  0  0  0  0
    1.4697   -5.9621   37.1841 C   0  0  0  0  0  0  0  0  0  0  0  0
    1.6786   -6.8918   38.3548 C   0  0  0  0  0  0  0  0  0  0  0  0
    2.9628   -7.3927   38.6148 C   0  0  0  0  0  0  0  0  0  0  0  0
    3.1917   -8.2459   39.6975 C   0  0  0  0  0  0  0  0  0  0  0  0
    2.1421   -8.6172   40.5335 C   0  0  0  0  0  0  0  0  0  0  0  0
    0.8607   -8.1417   40.2840 C   0  0  0  0  0  0  0  0  0  0  0  0
    0.6323   -7.2875   39.2050 C   0  0  0  0  0  0  0  0  0  0  0  0
    0.9480   -6.8842   35.7250 S   0  0  0  0  0  0  0  0  0  0  0  0
    2.0474   -7.2977   34.8804 O   0  0  0  0  0  0  0  0  0  0  0  0
   -0.1190   -7.7843   36.0836 O   0  0  0  0  0  0  0  0  0  0  0  0
    0.3891   -4.3046   32.8018 C   0  0  0  0  0  0  0  0  0  0  0  0
   -0.0784   -4.3567   31.3210 C   0  0  0  0  0  0  0  0  0  0  0  0
    0.1583   -5.7128   30.6906 C   0  0  0  0  0  0  0  0  0  0  0  0
    1.9351   -4.4903   32.9342 C   0  0  0  0  0  0  0  0  0  0  0  0
    2.7425   -3.4724   32.2388 N   0  0  0  0  0  0  0  0  0  0  0  0
    2.3861   -2.1518   32.7847 C   0  0  0  0  0  0  0  0  0  0  0  0
    0.8707   -1.8638   32.7474 C   0  0  0  0  0  0  0  0  0  0  0  0
    0.0396   -2.9376   33.3169 N   0  0  0  0  0  0  0  0  0  0  0  0
   -1.3952   -7.8648   35.1835 H   0  0  0  0  0  0  0  0  0  0  0  0
   -2.3194   -8.9444   34.4580 H   0  0  0  0  0  0  0  0  0  0  0  0
   -1.3717   -5.0809   33.7994 H   0  0  0  0  0  0  0  0  0  0  0  0
    0.7540   -3.6150   35.6920 H   0  0  0  0  0  0  0  0  0  0  0  0
   -0.9760   -4.0171   35.8828 H   0  0  0  0  0  0  0  0  0  0  0  0
   -0.5765   -5.3645   37.7226 H   0  0  0  0  0  0  0  0  0  0  0  0
    0.6278   -4.1122   38.0133 H   0  0  0  0  0  0  0  0  0  0  0  0
    2.4039   -5.4515   36.9188 H   0  0  0  0  0  0  0  0  0  0  0  0
    3.8028   -7.1253   37.9762 H   0  0  0  0  0  0  0  0  0  0  0  0
    4.1931   -8.6249   39.8854 H   0  0  0  0  0  0  0  0  0  0  0  0
    2.3201   -9.2865   41.3701 H   0  0  0  0  0  0  0  0  0  0  0  0
    0.0320   -8.4504   40.9157 H   0  0  0  0  0  0  0  0  0  0  0  0
   -0.3904   -6.9643   39.0370 H   0  0  0  0  0  0  0  0  0  0  0  0
    0.4179   -3.6051   30.6980 H   0  0  0  0  0  0  0  0  0  0  0  0
   -1.1515   -4.1217   31.2767 H   0  0  0  0  0  0  0  0  0  0  0  0
   -0.2693   -5.7164   29.6829 H   0  0  0  0  0  0  0  0  0  0  0  0
    1.2246   -5.9079   30.5731 H   0  0  0  0  0  0  0  0  0  0  0  0
    2.2475   -4.4740   33.9849 H   0  0  0  0  0  0  0  0  0  0  0  0
    2.2077   -5.4783   32.5781 H   0  0  0  0  0  0  0  0  0  0  0  0
    2.5292   -3.4800   31.2431 H   0  0  0  0  0  0  0  0  0  0  0  0
    2.9175   -1.3790   32.2183 H   0  0  0  0  0  0  0  0  0  0  0  0
    2.7469   -2.0847   33.8188 H   0  0  0  0  0  0  0  0  0  0  0  0
    0.5610   -1.6604   31.7161 H   0  0  0  0  0  0  0  0  0  0  0  0
    0.6754   -0.9453   33.3123 H   0  0  0  0  0  0  0  0  0  0  0  0
   -0.9480   -2.7305   33.1602 H   0  0  0  0  0  0  0  0  0  0  0  0
  1  2  1  0
  2  3  2  0
  3  4  1  0
  4  5  2  0
  5  6  1  0
  6  7  1  0
  7  8  1  0
  8  9  1  0
  9 10  1  0
 10 11  1  0
 11 12  1  0
 12 13  2  0
 13 14  1  0
 14 15  2  0
 15 16  1  0
 16 17  2  0
 11 18  1  0
 18 19  2  0
 18 20  2  0
  7 21  1  0
 21 22  1  0
 22 23  1  0
 21 24  1  0
 24 25  1  0
 25 26  1  0
 26 27  1  0
 27 28  1  0
  6  2  1  0
 18  8  1  0
 28 21  1  0
 23  5  1  0
 17 12  1  0
  1 29  1  0
  1 30  1  0
  7 31  1  0
  9 32  1  0
  9 33  1  0
 10 34  1  0
 10 35  1  0
 11 36  1  0
 13 37  1  0
 14 38  1  0
 15 39  1  0
 16 40  1  0
 17 41  1  0
 22 42  1  0
 22 43  1  0
 23 44  1  0
 23 45  1  0
 24 46  1  0
 24 47  1  0
 25 48  1  0
 26 49  1  0
 26 50  1  0
 27 51  1  0
 27 52  1  0
 28 53  1  0
M  END
>  <Energy>  (446) 
76.740553659485769

>  <compound_id>  (446) 
4119

>  <target_id>  (446) 
1

>  <reference_id>  (446) 
144

>  <inspiration_ids>  (446) 
[144, 133]

>  <energy_score>  (446) 
-102.93271121804787

>  <distance_score>  (446) 
0.6638781939456567

>  <path>  (446) 
/opt/xchem-fragalysis-2/maxwin/BulkDock/SCRATCH/505735/C4119-P144/C4119-P144.minimised.mol

>  <scratch_subdir>  (446) 
/opt/xchem-fragalysis-2/maxwin/BulkDock/SCRATCH/505735/C4119-P144

>  <fragmenstein_runtime>  (446) 
4.256367921829224

>  <fragmenstein_outcome>  (446) 
acceptable

>  <fragmenstein_mode>  (446) 
expansion

>  <fragmenstein_error>  (446) 


$$$$
C4119-P133
     RDKit          3D

 53 57  0  0  0  0  0  0  0  0999 V2000
   -1.9392   -7.8880   34.4262 N   0  0  0  0  0  0  0  0  0  0  0  0
   -1.4003   -7.7163   33.2007 C   0  0  0  0  0  0  0  0  0  0  0  0
   -1.6521   -8.4533   32.1419 N   0  0  0  0  0  0  0  0  0  0  0  0
   -1.0078   -7.9200   31.0694 N   0  0  0  0  0  0  0  0  0  0  0  0
   -0.3660   -6.8593   31.4950 C   0  0  0  0  0  0  0  0  0  0  0  0
   -0.5222   -6.7167   32.8607 N   0  0  0  0  0  0  0  0  0  0  0  0
   -0.1954   -5.4820   33.5949 C   0  0  0  0  0  0  0  0  0  0  0  0
    0.3753   -5.5426   34.9647 N   0  0  0  0  0  0  0  0  0  0  0  0
    0.2007   -4.3735   35.8499 C   0  0  0  0  0  0  0  0  0  0  0  0
    0.4523   -4.8586   37.2759 C   0  0  0  0  0  0  0  0  0  0  0  0
    1.5613   -5.9177   37.1807 C   0  0  0  0  0  0  0  0  0  0  0  0
    1.7237   -6.8351   38.3694 C   0  0  0  0  0  0  0  0  0  0  0  0
    2.9925   -7.3529   38.6693 C   0  0  0  0  0  0  0  0  0  0  0  0
    3.1749   -8.2160   39.7529 C   0  0  0  0  0  0  0  0  0  0  0  0
    2.0934   -8.5809   40.5501 C   0  0  0  0  0  0  0  0  0  0  0  0
    0.8273   -8.0856   40.2634 C   0  0  0  0  0  0  0  0  0  0  0  0
    0.6456   -7.2198   39.1844 C   0  0  0  0  0  0  0  0  0  0  0  0
    1.0639   -6.8646   35.7294 S   0  0  0  0  0  0  0  0  0  0  0  0
    2.1856   -7.3111   34.9324 O   0  0  0  0  0  0  0  0  0  0  0  0
   -0.0205   -7.7395   36.0942 O   0  0  0  0  0  0  0  0  0  0  0  0
    0.6625   -4.4368   32.7048 C   0  0  0  0  0  0  0  0  0  0  0  0
    0.1696   -4.4868   31.2341 C   0  0  0  0  0  0  0  0  0  0  0  0
    0.3111   -5.8721   30.6400 C   0  0  0  0  0  0  0  0  0  0  0  0
    2.1921   -4.7833   32.8045 C   0  0  0  0  0  0  0  0  0  0  0  0
    3.0785   -3.8374   32.0978 N   0  0  0  0  0  0  0  0  0  0  0  0
    2.8524   -2.4905   32.6486 C   0  0  0  0  0  0  0  0  0  0  0  0
    1.3740   -2.0536   32.5995 C   0  0  0  0  0  0  0  0  0  0  0  0
    0.4405   -3.0296   33.1827 N   0  0  0  0  0  0  0  0  0  0  0  0
   -1.3074   -7.7362   35.2194 H   0  0  0  0  0  0  0  0  0  0  0  0
   -2.1739   -8.8850   34.5552 H   0  0  0  0  0  0  0  0  0  0  0  0
   -1.1931   -5.0328   33.7054 H   0  0  0  0  0  0  0  0  0  0  0  0
    0.9475   -3.6120   35.6085 H   0  0  0  0  0  0  0  0  0  0  0  0
   -0.8021   -3.9448   35.7655 H   0  0  0  0  0  0  0  0  0  0  0  0
   -0.4890   -5.2767   37.6484 H   0  0  0  0  0  0  0  0  0  0  0  0
    0.7278   -4.0368   37.9448 H   0  0  0  0  0  0  0  0  0  0  0  0
    2.5109   -5.4285   36.9308 H   0  0  0  0  0  0  0  0  0  0  0  0
    3.8556   -7.0958   38.0579 H   0  0  0  0  0  0  0  0  0  0  0  0
    4.1639   -8.6117   39.9695 H   0  0  0  0  0  0  0  0  0  0  0  0
    2.2347   -9.2622   41.3841 H   0  0  0  0  0  0  0  0  0  0  0  0
   -0.0258   -8.3910   40.8634 H   0  0  0  0  0  0  0  0  0  0  0  0
   -0.3668   -6.8853   38.9809 H   0  0  0  0  0  0  0  0  0  0  0  0
    0.7062   -3.7847   30.5869 H   0  0  0  0  0  0  0  0  0  0  0  0
   -0.8872   -4.1845   31.1963 H   0  0  0  0  0  0  0  0  0  0  0  0
   -0.1518   -5.8706   29.6515 H   0  0  0  0  0  0  0  0  0  0  0  0
    1.3597   -6.1421   30.4936 H   0  0  0  0  0  0  0  0  0  0  0  0
    2.5175   -4.7968   33.8511 H   0  0  0  0  0  0  0  0  0  0  0  0
    2.3866   -5.7903   32.4256 H   0  0  0  0  0  0  0  0  0  0  0  0
    2.8462   -3.8236   31.1064 H   0  0  0  0  0  0  0  0  0  0  0  0
    3.4611   -1.7731   32.0872 H   0  0  0  0  0  0  0  0  0  0  0  0
    3.2117   -2.4614   33.6850 H   0  0  0  0  0  0  0  0  0  0  0  0
    1.0896   -1.8399   31.5628 H   0  0  0  0  0  0  0  0  0  0  0  0
    1.2688   -1.1103   33.1471 H   0  0  0  0  0  0  0  0  0  0  0  0
   -0.5194   -2.7322   33.0005 H   0  0  0  0  0  0  0  0  0  0  0  0
  1  2  1  0
  2  3  2  0
  3  4  1  0
  4  5  2  0
  5  6  1  0
  6  7  1  0
  7  8  1  0
  8  9  1  0
  9 10  1  0
 10 11  1  0
 11 12  1  0
 12 13  2  0
 13 14  1  0
 14 15  2  0
 15 16  1  0
 16 17  2  0
 11 18  1  0
 18 19  2  0
 18 20  2  0
  7 21  1  0
 21 22  1  0
 22 23  1  0
 21 24  1  0
 24 25  1  0
 25 26  1  0
 26 27  1  0
 27 28  1  0
  6  2  1  0
 18  8  1  0
 28 21  1  0
 23  5  1  0
 17 12  1  0
  1 29  1  0
  1 30  1  0
  7 31  1  0
  9 32  1  0
  9 33  1  0
 10 34  1  0
 10 35  1  0
 11 36  1  0
 13 37  1  0
 14 38  1  0
 15 39  1  0
 16 40  1  0
 17 41  1  0
 22 42  1  0
 22 43  1  0
 23 44  1  0
 23 45  1  0
 24 46  1  0
 24 47  1  0
 25 48  1  0
 26 49  1  0
 26 50  1  0
 27 51  1  0
 27 52  1  0
 28 53  1  0
M  END
>  <Energy>  (447) 
76.805407577260866

>  <compound_id>  (447) 
4119

>  <target_id>  (447) 
1

>  <reference_id>  (447) 
133

>  <inspiration_ids>  (447) 
[144, 133]

>  <energy_score>  (447) 
-102.86785730027353

>  <distance_score>  (447) 
0.6464780739767272

>  <path>  (447) 
/opt/xchem-fragalysis-2/maxwin/BulkDock/SCRATCH/505735/C4119-P133/C4119-P133.minimised.mol

>  <scratch_subdir>  (447) 
/opt/xchem-fragalysis-2/maxwin/BulkDock/SCRATCH/505735/C4119-P133

>  <fragmenstein_runtime>  (447) 
4.841765880584717

>  <fragmenstein_outcome>  (447) 
acceptable

>  <fragmenstein_mode>  (447) 
expansion

>  <fragmenstein_error>  (447) 


$$$$
C4119-P144
     RDKit          2D

  0  0  0  0  0  0  0  0  0  0999 V2000
M  END
>  <compound_id>  (448) 
4119

>  <target_id>  (448) 
1

>  <reference_id>  (448) 
144

>  <inspiration_ids>  (448) 
[144, 134]

>  <energy_score>  (448) 
nan

>  <distance_score>  (448) 
nan

>  <path>  (448) 
/opt/xchem-fragalysis-2/maxwin/BulkDock/SCRATCH/505735/C4119-P144/C4119-P144.minimised.mol

>  <scratch_subdir>  (448) 
/opt/xchem-fragalysis-2/maxwin/BulkDock/SCRATCH/505735/C4119-P144

>  <fragmenstein_runtime>  (448) 
0.6630494594573975

>  <fragmenstein_outcome>  (448) 
too distant

>  <fragmenstein_mode>  (448) 
expansion

>  <fragmenstein_error>  (448) 
DistanceError: hit0+hit1

$$$$
C4122-P144
     RDKit          3D

 49 53  0  0  0  0  0  0  0  0999 V2000
    1.8906   -3.0222   30.0819 O   0  0  0  0  0  0  0  0  0  0  0  0
    1.0229   -2.7179   31.2040 S   0  0  0  0  0  0  0  0  0  0  0  0
    1.5459   -2.1056   32.4075 O   0  0  0  0  0  0  0  0  0  0  0  0
   -0.4037   -1.7508   30.6285 C   0  0  0  0  0  0  0  0  0  0  0  0
   -0.1515   -0.7558   29.5179 C   0  0  0  0  0  0  0  0  0  0  0  0
   -0.9687   -0.6701   28.3719 C   0  0  0  0  0  0  0  0  0  0  0  0
   -0.8784    0.4129   27.4940 C   0  0  0  0  0  0  0  0  0  0  0  0
    0.0511    1.4165   27.7246 C   0  0  0  0  0  0  0  0  0  0  0  0
    0.8997    1.3258   28.8230 C   0  0  0  0  0  0  0  0  0  0  0  0
    0.7955    0.2550   29.7138 C   0  0  0  0  0  0  0  0  0  0  0  0
   -1.4461   -2.8051   30.3301 C   0  0  0  0  0  0  0  0  0  0  0  0
   -1.3390   -3.7477   31.4957 C   0  0  0  0  0  0  0  0  0  0  0  0
    0.1110   -4.2396   31.6564 C   0  0  0  0  0  0  0  0  0  0  0  0
    0.4293   -5.3495   30.6164 C   0  0  0  0  0  0  0  0  0  0  0  0
   -0.3602   -6.6431   30.8156 C   0  0  0  0  0  0  0  0  0  0  0  0
   -0.4082   -7.0240   32.2738 C   0  0  0  0  0  0  0  0  0  0  0  0
   -1.3801   -8.0508   32.6113 N   0  0  0  0  0  0  0  0  0  0  0  0
   -1.6132   -7.8603   34.0667 N   0  0  0  0  0  0  0  0  0  0  0  0
   -0.8726   -6.6465   34.4481 C   0  0  0  0  0  0  0  0  0  0  0  0
    0.4718   -6.9576   35.1418 C   0  0  0  0  0  0  0  0  0  0  0  0
    1.3943   -5.7422   35.1358 C   0  0  0  0  0  0  0  0  0  0  0  0
    1.5453   -5.1399   33.7277 C   0  0  0  0  0  0  0  0  0  0  0  0
    0.1831   -4.7893   33.1262 C   0  0  0  0  0  0  0  0  0  0  0  0
   -0.7351   -5.9502   33.1774 N   0  0  0  0  0  0  0  0  0  0  0  0
   -0.7369   -1.1774   31.5058 H   0  0  0  0  0  0  0  0  0  0  0  0
   -1.7091   -1.4311   28.1349 H   0  0  0  0  0  0  0  0  0  0  0  0
   -1.5344    0.4574   26.6274 H   0  0  0  0  0  0  0  0  0  0  0  0
    0.1201    2.2626   27.0462 H   0  0  0  0  0  0  0  0  0  0  0  0
    1.6353    2.1072   28.9997 H   0  0  0  0  0  0  0  0  0  0  0  0
    1.4473    0.2466   30.5865 H   0  0  0  0  0  0  0  0  0  0  0  0
   -1.2508   -3.3256   29.3873 H   0  0  0  0  0  0  0  0  0  0  0  0
   -2.4478   -2.3784   30.2906 H   0  0  0  0  0  0  0  0  0  0  0  0
   -1.6955   -3.2280   32.3953 H   0  0  0  0  0  0  0  0  0  0  0  0
   -1.9603   -4.6017   31.3508 H   0  0  0  0  0  0  0  0  0  0  0  0
    0.2570   -4.9977   29.5933 H   0  0  0  0  0  0  0  0  0  0  0  0
    1.4953   -5.5792   30.6714 H   0  0  0  0  0  0  0  0  0  0  0  0
   -1.3646   -6.5660   30.4258 H   0  0  0  0  0  0  0  0  0  0  0  0
    0.0842   -7.4478   30.2215 H   0  0  0  0  0  0  0  0  0  0  0  0
    0.5779   -7.3861   32.5195 H   0  0  0  0  0  0  0  0  0  0  0  0
   -2.2621   -7.8281   32.1446 H   0  0  0  0  0  0  0  0  0  0  0  0
   -1.3184   -8.6854   34.6114 H   0  0  0  0  0  0  0  0  0  0  0  0
   -1.4777   -6.0562   35.1414 H   0  0  0  0  0  0  0  0  0  0  0  0
    0.2848   -7.2761   36.1748 H   0  0  0  0  0  0  0  0  0  0  0  0
    0.9897   -7.7916   34.6632 H   0  0  0  0  0  0  0  0  0  0  0  0
    2.3801   -6.0240   35.5226 H   0  0  0  0  0  0  0  0  0  0  0  0
    0.9924   -4.9781   35.8127 H   0  0  0  0  0  0  0  0  0  0  0  0
    2.0815   -5.8414   33.0896 H   0  0  0  0  0  0  0  0  0  0  0  0
    2.1705   -4.2437   33.7963 H   0  0  0  0  0  0  0  0  0  0  0  0
   -0.2351   -4.0162   33.7868 H   0  0  0  0  0  0  0  0  0  0  0  0
  1  2  2  0
  2  3  2  0
  2  4  1  0
  4  5  1  0
  5  6  2  0
  6  7  1  0
  7  8  2  0
  8  9  1  0
  9 10  2  0
  4 11  1  0
 11 12  1  0
 12 13  1  0
 13 14  1  0
 14 15  1  0
 15 16  1  0
 16 17  1  0
 17 18  1  0
 18 19  1  0
 19 20  1  0
 20 21  1  0
 21 22  1  0
 22 23  1  0
 23 24  1  0
 13  2  1  0
 24 16  1  0
 10  5  1  0
 23 13  1  0
 24 19  1  0
  4 25  1  0
  6 26  1  0
  7 27  1  0
  8 28  1  0
  9 29  1  0
 10 30  1  0
 11 31  1  0
 11 32  1  0
 12 33  1  0
 12 34  1  0
 14 35  1  0
 14 36  1  0
 15 37  1  0
 15 38  1  0
 16 39  1  0
 17 40  1  0
 18 41  1  0
 19 42  1  0
 20 43  1  0
 20 44  1  0
 21 45  1  0
 21 46  1  0
 22 47  1  0
 22 48  1  0
 23 49  1  0
M  END
>  <Energy>  (449) 
73.48424698576612

>  <compound_id>  (449) 
4122

>  <target_id>  (449) 
1

>  <reference_id>  (449) 
144

>  <inspiration_ids>  (449) 
[144, 141]

>  <energy_score>  (449) 
-49.67731206912367

>  <distance_score>  (449) 
1.7011854914708684

>  <path>  (449) 
/opt/xchem-fragalysis-2/maxwin/BulkDock/SCRATCH/505735/C4122-P144/C4122-P144.minimised.mol

>  <scratch_subdir>  (449) 
/opt/xchem-fragalysis-2/maxwin/BulkDock/SCRATCH/505735/C4122-P144

>  <fragmenstein_runtime>  (449) 
13.376980066299438

>  <fragmenstein_outcome>  (449) 
too moved

>  <fragmenstein_mode>  (449) 
expansion

>  <fragmenstein_error>  (449) 


$$$$
C4122-P141
     RDKit          3D

 49 53  0  0  0  0  0  0  0  0999 V2000
    1.8169   -2.7242   29.8374 O   0  0  0  0  0  0  0  0  0  0  0  0
    1.1803   -2.6633   31.1396 S   0  0  0  0  0  0  0  0  0  0  0  0
    1.9470   -2.3171   32.3173 O   0  0  0  0  0  0  0  0  0  0  0  0
   -0.2864   -1.5876   31.0888 C   0  0  0  0  0  0  0  0  0  0  0  0
   -0.3714   -0.7544   29.8213 C   0  0  0  0  0  0  0  0  0  0  0  0
   -1.3021   -0.9526   28.7885 C   0  0  0  0  0  0  0  0  0  0  0  0
   -1.4351   -0.0167   27.7558 C   0  0  0  0  0  0  0  0  0  0  0  0
   -0.6347    1.1195   27.7268 C   0  0  0  0  0  0  0  0  0  0  0  0
    0.3313    1.3017   28.7062 C   0  0  0  0  0  0  0  0  0  0  0  0
    0.4629    0.3728   29.7380 C   0  0  0  0  0  0  0  0  0  0  0  0
   -1.4575   -2.5023   31.4164 C   0  0  0  0  0  0  0  0  0  0  0  0
   -1.0718   -3.8710   30.8868 C   0  0  0  0  0  0  0  0  0  0  0  0
    0.3400   -4.2514   31.4078 C   0  0  0  0  0  0  0  0  0  0  0  0
    0.9242   -5.3550   30.4946 C   0  0  0  0  0  0  0  0  0  0  0  0
    0.0951   -6.6413   30.5617 C   0  0  0  0  0  0  0  0  0  0  0  0
   -0.1247   -7.0524   32.0013 C   0  0  0  0  0  0  0  0  0  0  0  0
   -1.1471   -8.0672   32.2162 N   0  0  0  0  0  0  0  0  0  0  0  0
   -1.5130   -7.8996   33.6540 N   0  0  0  0  0  0  0  0  0  0  0  0
   -0.8360   -6.6793   34.1089 C   0  0  0  0  0  0  0  0  0  0  0  0
    0.4431   -6.9625   34.9257 C   0  0  0  0  0  0  0  0  0  0  0  0
    1.2926   -5.7040   35.0350 C   0  0  0  0  0  0  0  0  0  0  0  0
    1.5621   -5.0883   33.6506 C   0  0  0  0  0  0  0  0  0  0  0  0
    0.2524   -4.7814   32.8938 C   0  0  0  0  0  0  0  0  0  0  0  0
   -0.5931   -5.9869   32.8559 N   0  0  0  0  0  0  0  0  0  0  0  0
   -0.1840   -0.8898   31.9311 H   0  0  0  0  0  0  0  0  0  0  0  0
   -1.9542   -1.8220   28.7602 H   0  0  0  0  0  0  0  0  0  0  0  0
   -2.1616   -0.1900   26.9642 H   0  0  0  0  0  0  0  0  0  0  0  0
   -0.7553    1.8511   26.9330 H   0  0  0  0  0  0  0  0  0  0  0  0
    0.9708    2.1804   28.6789 H   0  0  0  0  0  0  0  0  0  0  0  0
    1.2118    0.5640   30.5058 H   0  0  0  0  0  0  0  0  0  0  0  0
   -2.4125   -2.1566   31.0108 H   0  0  0  0  0  0  0  0  0  0  0  0
   -1.5914   -2.5548   32.5033 H   0  0  0  0  0  0  0  0  0  0  0  0
   -1.7946   -4.5939   31.2203 H   0  0  0  0  0  0  0  0  0  0  0  0
   -1.0856   -3.8525   29.7900 H   0  0  0  0  0  0  0  0  0  0  0  0
    0.9629   -5.0280   29.4495 H   0  0  0  0  0  0  0  0  0  0  0  0
    1.9618   -5.5619   30.7815 H   0  0  0  0  0  0  0  0  0  0  0  0
   -0.8531   -6.5066   30.0463 H   0  0  0  0  0  0  0  0  0  0  0  0
    0.6088   -7.4440   30.0224 H   0  0  0  0  0  0  0  0  0  0  0  0
    0.8328   -7.4412   32.3515 H   0  0  0  0  0  0  0  0  0  0  0  0
   -1.9693   -7.7817   31.6819 H   0  0  0  0  0  0  0  0  0  0  0  0
   -1.2348   -8.7168   34.2131 H   0  0  0  0  0  0  0  0  0  0  0  0
   -1.5121   -6.1058   34.7449 H   0  0  0  0  0  0  0  0  0  0  0  0
    0.1709   -7.3203   35.9262 H   0  0  0  0  0  0  0  0  0  0  0  0
    1.0528   -7.7510   34.4761 H   0  0  0  0  0  0  0  0  0  0  0  0
    2.2438   -5.9390   35.5256 H   0  0  0  0  0  0  0  0  0  0  0  0
    0.7795   -4.9675   35.6656 H   0  0  0  0  0  0  0  0  0  0  0  0
    2.2047   -5.7643   33.0758 H   0  0  0  0  0  0  0  0  0  0  0  0
    2.1401   -4.1740   33.8052 H   0  0  0  0  0  0  0  0  0  0  0  0
   -0.2749   -4.0259   33.4892 H   0  0  0  0  0  0  0  0  0  0  0  0
  1  2  2  0
  2  3  2  0
  2  4  1  0
  4  5  1  0
  5  6  2  0
  6  7  1  0
  7  8  2  0
  8  9  1  0
  9 10  2  0
  4 11  1  0
 11 12  1  0
 12 13  1  0
 13 14  1  0
 14 15  1  0
 15 16  1  0
 16 17  1  0
 17 18  1  0
 18 19  1  0
 19 20  1  0
 20 21  1  0
 21 22  1  0
 22 23  1  0
 23 24  1  0
 13  2  1  0
 24 16  1  0
 10  5  1  0
 23 13  1  0
 24 19  1  0
  4 25  1  0
  6 26  1  0
  7 27  1  0
  8 28  1  0
  9 29  1  0
 10 30  1  0
 11 31  1  0
 11 32  1  0
 12 33  1  0
 12 34  1  0
 14 35  1  0
 14 36  1  0
 15 37  1  0
 15 38  1  0
 16 39  1  0
 17 40  1  0
 18 41  1  0
 19 42  1  0
 20 43  1  0
 20 44  1  0
 21 45  1  0
 21 46  1  0
 22 47  1  0
 22 48  1  0
 23 49  1  0
M  END
>  <Energy>  (450) 
70.865723307661497

>  <compound_id>  (450) 
4122

>  <target_id>  (450) 
1

>  <reference_id>  (450) 
141

>  <inspiration_ids>  (450) 
[144, 141]

>  <energy_score>  (450) 
-52.29583574722892

>  <distance_score>  (450) 
1.7236387356418028

>  <path>  (450) 
/opt/xchem-fragalysis-2/maxwin/BulkDock/SCRATCH/505735/C4122-P141/C4122-P141.minimised.mol

>  <scratch_subdir>  (450) 
/opt/xchem-fragalysis-2/maxwin/BulkDock/SCRATCH/505735/C4122-P141

>  <fragmenstein_runtime>  (450) 
13.286967992782593

>  <fragmenstein_outcome>  (450) 
too moved

>  <fragmenstein_mode>  (450) 
expansion

>  <fragmenstein_error>  (450) 


$$$$
C4129-P144
     RDKit          3D

 55 59  0  0  0  0  0  0  0  0999 V2000
    0.1627   -3.1729   28.6093 O   0  0  0  0  0  0  0  0  0  0  0  0
   -0.0229   -2.1017   29.5576 S   0  0  0  0  0  0  0  0  0  0  0  0
    0.9684   -1.7994   30.5691 O   0  0  0  0  0  0  0  0  0  0  0  0
   -1.4619   -2.4525   30.3558 N   0  0  0  0  0  0  0  0  0  0  0  0
   -1.2784   -2.8080   31.7515 C   0  0  0  0  0  0  0  0  0  0  0  0
   -0.6788   -4.1744   31.9737 C   0  0  0  0  0  0  0  0  0  0  0  0
   -0.3183   -4.3943   33.3640 C   0  0  0  0  0  0  0  0  0  0  0  0
   -0.3181   -5.6357   33.8760 C   0  0  0  0  0  0  0  0  0  0  0  0
   -0.0345   -5.6967   35.2735 N   0  0  0  0  0  0  0  0  0  0  0  0
    0.1973   -4.5125   36.1368 C   0  0  0  0  0  0  0  0  0  0  0  0
    0.4726   -5.0394   37.5323 C   0  0  0  0  0  0  0  0  0  0  0  0
    1.4083   -6.2293   37.3275 C   0  0  0  0  0  0  0  0  0  0  0  0
    1.5933   -7.1360   38.5124 C   0  0  0  0  0  0  0  0  0  0  0  0
    2.8529   -7.7050   38.7524 C   0  0  0  0  0  0  0  0  0  0  0  0
    3.0665   -8.5172   39.8671 C   0  0  0  0  0  0  0  0  0  0  0  0
    2.0247   -8.7783   40.7528 C   0  0  0  0  0  0  0  0  0  0  0  0
    0.7663   -8.2346   40.5211 C   0  0  0  0  0  0  0  0  0  0  0  0
    0.5535   -7.4200   39.4104 C   0  0  0  0  0  0  0  0  0  0  0  0
    0.6905   -7.1029   35.9243 S   0  0  0  0  0  0  0  0  0  0  0  0
    1.7196   -7.5456   35.0008 O   0  0  0  0  0  0  0  0  0  0  0  0
   -0.4111   -7.9394   36.3248 O   0  0  0  0  0  0  0  0  0  0  0  0
   -0.6509   -6.6824   33.0036 N   0  0  0  0  0  0  0  0  0  0  0  0
   -1.1377   -7.9444   33.1878 C   0  0  0  0  0  0  0  0  0  0  0  0
   -1.3823   -8.5182   32.0276 N   0  0  0  0  0  0  0  0  0  0  0  0
   -1.0703   -7.6270   31.0363 N   0  0  0  0  0  0  0  0  0  0  0  0
   -0.6847   -6.5140   31.6206 C   0  0  0  0  0  0  0  0  0  0  0  0
   -0.5528   -5.1942   31.0988 C   0  0  0  0  0  0  0  0  0  0  0  0
   -0.4151   -0.6139   28.7120 C   0  0  0  0  0  0  0  0  0  0  0  0
   -1.3613   -0.6318   27.6918 C   0  0  0  0  0  0  0  0  0  0  0  0
   -1.6019    0.5313   26.9594 C   0  0  0  0  0  0  0  0  0  0  0  0
   -0.9178    1.6948   27.2709 C   0  0  0  0  0  0  0  0  0  0  0  0
   -1.1524    2.8530   26.5973 O   0  0  0  0  0  0  0  0  0  0  0  0
    0.0406    1.7086   28.2743 C   0  0  0  0  0  0  0  0  0  0  0  0
    0.2863    0.5547   29.0133 C   0  0  0  0  0  0  0  0  0  0  0  0
   -1.9831   -3.1131   29.7771 H   0  0  0  0  0  0  0  0  0  0  0  0
   -0.7204   -2.0201   32.2715 H   0  0  0  0  0  0  0  0  0  0  0  0
   -2.2755   -2.7974   32.2111 H   0  0  0  0  0  0  0  0  0  0  0  0
   -0.0904   -3.5008   33.9322 H   0  0  0  0  0  0  0  0  0  0  0  0
    1.0659   -3.9468   35.7805 H   0  0  0  0  0  0  0  0  0  0  0  0
   -0.6835   -3.8625   36.1557 H   0  0  0  0  0  0  0  0  0  0  0  0
   -0.4840   -5.3332   37.9783 H   0  0  0  0  0  0  0  0  0  0  0  0
    0.9156   -4.2750   38.1789 H   0  0  0  0  0  0  0  0  0  0  0  0
    2.3811   -5.8528   36.9839 H   0  0  0  0  0  0  0  0  0  0  0  0
    3.6857   -7.5204   38.0764 H   0  0  0  0  0  0  0  0  0  0  0  0
    4.0481   -8.9498   40.0432 H   0  0  0  0  0  0  0  0  0  0  0  0
    2.1896   -9.4154   41.6171 H   0  0  0  0  0  0  0  0  0  0  0  0
   -0.0557   -8.4563   41.1966 H   0  0  0  0  0  0  0  0  0  0  0  0
   -0.4486   -7.0304   39.2584 H   0  0  0  0  0  0  0  0  0  0  0  0
   -1.3324   -8.3850   34.1532 H   0  0  0  0  0  0  0  0  0  0  0  0
   -0.6826   -5.0814   30.0299 H   0  0  0  0  0  0  0  0  0  0  0  0
   -1.8839   -1.5471   27.4256 H   0  0  0  0  0  0  0  0  0  0  0  0
   -2.3051    0.5110   26.1330 H   0  0  0  0  0  0  0  0  0  0  0  0
   -2.1050    2.8962   26.3845 H   0  0  0  0  0  0  0  0  0  0  0  0
    0.5905    2.6238   28.4793 H   0  0  0  0  0  0  0  0  0  0  0  0
    1.0479    0.5718   29.7885 H   0  0  0  0  0  0  0  0  0  0  0  0
  1  2  2  0
  2  3  2  0
  2  4  1  0
  4  5  1  0
  5  6  1  0
  6  7  1  0
  7  8  2  0
  8  9  1  0
  9 10  1  0
 10 11  1  0
 11 12  1  0
 12 13  1  0
 13 14  2  0
 14 15  1  0
 15 16  2  0
 16 17  1  0
 17 18  2  0
 12 19  1  0
 19 20  2  0
 19 21  2  0
  8 22  1  0
 22 23  1  0
 23 24  2  0
 24 25  1  0
 25 26  2  0
 26 27  1  0
  2 28  1  0
 28 29  2  0
 29 30  1  0
 30 31  2  0
 31 32  1  0
 31 33  1  0
 33 34  2  0
 27  6  2  0
 34 28  1  0
 19  9  1  0
 26 22  1  0
 18 13  1  0
  4 35  1  0
  5 36  1  0
  5 37  1  0
  7 38  1  0
 10 39  1  0
 10 40  1  0
 11 41  1  0
 11 42  1  0
 12 43  1  0
 14 44  1  0
 15 45  1  0
 16 46  1  0
 17 47  1  0
 18 48  1  0
 23 49  1  0
 27 50  1  0
 29 51  1  0
 30 52  1  0
 32 53  1  0
 33 54  1  0
 34 55  1  0
M  END
>  <Energy>  (451) 
15.403773982319608

>  <compound_id>  (451) 
4129

>  <target_id>  (451) 
1

>  <reference_id>  (451) 
144

>  <inspiration_ids>  (451) 
[144, 162]

>  <energy_score>  (451) 
-44.240620766356386

>  <distance_score>  (451) 
0.9660012404120394

>  <path>  (451) 
/opt/xchem-fragalysis-2/maxwin/BulkDock/SCRATCH/505735/C4129-P144/C4129-P144.minimised.mol

>  <scratch_subdir>  (451) 
/opt/xchem-fragalysis-2/maxwin/BulkDock/SCRATCH/505735/C4129-P144

>  <fragmenstein_runtime>  (451) 
4.4084343910217285

>  <fragmenstein_outcome>  (451) 
acceptable

>  <fragmenstein_mode>  (451) 
expansion

>  <fragmenstein_error>  (451) 


$$$$
C4129-P162
     RDKit          3D

 55 59  0  0  0  0  0  0  0  0999 V2000
    0.1290   -3.0514   28.6833 O   0  0  0  0  0  0  0  0  0  0  0  0
   -0.1294   -1.9861   29.6206 S   0  0  0  0  0  0  0  0  0  0  0  0
    0.8598   -1.5708   30.5926 O   0  0  0  0  0  0  0  0  0  0  0  0
   -1.5019   -2.4613   30.4692 N   0  0  0  0  0  0  0  0  0  0  0  0
   -1.2396   -2.8147   31.8518 C   0  0  0  0  0  0  0  0  0  0  0  0
   -0.5776   -4.1565   32.0374 C   0  0  0  0  0  0  0  0  0  0  0  0
   -0.1990   -4.3863   33.4196 C   0  0  0  0  0  0  0  0  0  0  0  0
   -0.1962   -5.6320   33.9197 C   0  0  0  0  0  0  0  0  0  0  0  0
    0.0770   -5.6966   35.3157 N   0  0  0  0  0  0  0  0  0  0  0  0
    0.2533   -4.5239   36.2040 C   0  0  0  0  0  0  0  0  0  0  0  0
    0.4825   -5.0640   37.6034 C   0  0  0  0  0  0  0  0  0  0  0  0
    1.4081   -6.2646   37.4170 C   0  0  0  0  0  0  0  0  0  0  0  0
    1.5532   -7.1775   38.6011 C   0  0  0  0  0  0  0  0  0  0  0  0
    2.8063   -7.7435   38.8796 C   0  0  0  0  0  0  0  0  0  0  0  0
    2.9827   -8.5678   39.9910 C   0  0  0  0  0  0  0  0  0  0  0  0
    1.9100   -8.8427   40.8347 C   0  0  0  0  0  0  0  0  0  0  0  0
    0.6582   -8.3005   40.5648 C   0  0  0  0  0  0  0  0  0  0  0  0
    0.4812   -7.4746   39.4562 C   0  0  0  0  0  0  0  0  0  0  0  0
    0.7091   -7.1249   35.9999 S   0  0  0  0  0  0  0  0  0  0  0  0
    1.7526   -7.6162   35.1189 O   0  0  0  0  0  0  0  0  0  0  0  0
   -0.4463   -7.9010   36.3719 O   0  0  0  0  0  0  0  0  0  0  0  0
   -0.5126   -6.6736   33.0354 N   0  0  0  0  0  0  0  0  0  0  0  0
   -0.9953   -7.9399   33.2016 C   0  0  0  0  0  0  0  0  0  0  0  0
   -1.2183   -8.5073   32.0336 N   0  0  0  0  0  0  0  0  0  0  0  0
   -0.8916   -7.6076   31.0550 N   0  0  0  0  0  0  0  0  0  0  0  0
   -0.5323   -6.4917   31.6527 C   0  0  0  0  0  0  0  0  0  0  0  0
   -0.4367   -5.1595   31.1466 C   0  0  0  0  0  0  0  0  0  0  0  0
   -0.7198   -0.5599   28.7817 C   0  0  0  0  0  0  0  0  0  0  0  0
   -1.7151   -0.6963   27.8166 C   0  0  0  0  0  0  0  0  0  0  0  0
   -2.1368    0.4312   27.1165 C   0  0  0  0  0  0  0  0  0  0  0  0
   -1.5819    1.6721   27.3948 C   0  0  0  0  0  0  0  0  0  0  0  0
   -1.9762    2.7866   26.7196 O   0  0  0  0  0  0  0  0  0  0  0  0
   -0.5889    1.8079   28.3552 C   0  0  0  0  0  0  0  0  0  0  0  0
   -0.1578    0.6885   29.0627 C   0  0  0  0  0  0  0  0  0  0  0  0
   -1.9818   -3.1611   29.9046 H   0  0  0  0  0  0  0  0  0  0  0  0
   -0.6946   -2.0093   32.3581 H   0  0  0  0  0  0  0  0  0  0  0  0
   -2.2169   -2.8508   32.3522 H   0  0  0  0  0  0  0  0  0  0  0  0
    0.0260   -3.4970   33.9954 H   0  0  0  0  0  0  0  0  0  0  0  0
    1.1269   -3.9413   35.8894 H   0  0  0  0  0  0  0  0  0  0  0  0
   -0.6364   -3.8858   36.1971 H   0  0  0  0  0  0  0  0  0  0  0  0
   -0.4893   -5.3493   38.0213 H   0  0  0  0  0  0  0  0  0  0  0  0
    0.9158   -4.3093   38.2678 H   0  0  0  0  0  0  0  0  0  0  0  0
    2.3932   -5.9008   37.0957 H   0  0  0  0  0  0  0  0  0  0  0  0
    3.6610   -7.5498   38.2346 H   0  0  0  0  0  0  0  0  0  0  0  0
    3.9582   -9.0006   40.1967 H   0  0  0  0  0  0  0  0  0  0  0  0
    2.0461   -9.4908   41.6959 H   0  0  0  0  0  0  0  0  0  0  0  0
   -0.1855   -8.5313   41.2094 H   0  0  0  0  0  0  0  0  0  0  0  0
   -0.5171   -7.0888   39.2682 H   0  0  0  0  0  0  0  0  0  0  0  0
   -1.2049   -8.3910   34.1598 H   0  0  0  0  0  0  0  0  0  0  0  0
   -0.5921   -5.0275   30.0837 H   0  0  0  0  0  0  0  0  0  0  0  0
   -2.1242   -1.6716   27.5622 H   0  0  0  0  0  0  0  0  0  0  0  0
   -2.8607    0.3221   26.3225 H   0  0  0  0  0  0  0  0  0  0  0  0
   -2.8932    2.6608   26.4131 H   0  0  0  0  0  0  0  0  0  0  0  0
   -0.1549    2.7858   28.5483 H   0  0  0  0  0  0  0  0  0  0  0  0
    0.6291    0.7978   29.8046 H   0  0  0  0  0  0  0  0  0  0  0  0
  1  2  2  0
  2  3  2  0
  2  4  1  0
  4  5  1  0
  5  6  1  0
  6  7  1  0
  7  8  2  0
  8  9  1  0
  9 10  1  0
 10 11  1  0
 11 12  1  0
 12 13  1  0
 13 14  2  0
 14 15  1  0
 15 16  2  0
 16 17  1  0
 17 18  2  0
 12 19  1  0
 19 20  2  0
 19 21  2  0
  8 22  1  0
 22 23  1  0
 23 24  2  0
 24 25  1  0
 25 26  2  0
 26 27  1  0
  2 28  1  0
 28 29  2  0
 29 30  1  0
 30 31  2  0
 31 32  1  0
 31 33  1  0
 33 34  2  0
 27  6  2  0
 34 28  1  0
 19  9  1  0
 26 22  1  0
 18 13  1  0
  4 35  1  0
  5 36  1  0
  5 37  1  0
  7 38  1  0
 10 39  1  0
 10 40  1  0
 11 41  1  0
 11 42  1  0
 12 43  1  0
 14 44  1  0
 15 45  1  0
 16 46  1  0
 17 47  1  0
 18 48  1  0
 23 49  1  0
 27 50  1  0
 29 51  1  0
 30 52  1  0
 32 53  1  0
 33 54  1  0
 34 55  1  0
M  END
>  <Energy>  (452) 
15.903713433704581

>  <compound_id>  (452) 
4129

>  <target_id>  (452) 
1

>  <reference_id>  (452) 
162

>  <inspiration_ids>  (452) 
[144, 162]

>  <energy_score>  (452) 
-43.7406813149735

>  <distance_score>  (452) 
0.9097636324481743

>  <path>  (452) 
/opt/xchem-fragalysis-2/maxwin/BulkDock/SCRATCH/505735/C4129-P162/C4129-P162.minimised.mol

>  <scratch_subdir>  (452) 
/opt/xchem-fragalysis-2/maxwin/BulkDock/SCRATCH/505735/C4129-P162

>  <fragmenstein_runtime>  (452) 
4.300879716873169

>  <fragmenstein_outcome>  (452) 
acceptable

>  <fragmenstein_mode>  (452) 
expansion

>  <fragmenstein_error>  (452) 


$$$$
C4129-P144
     RDKit          3D

 55 59  0  0  0  0  0  0  0  0999 V2000
    3.3467   -1.9244   33.6103 O   0  0  0  0  0  0  0  0  0  0  0  0
    2.3756   -2.4914   32.7038 S   0  0  0  0  0  0  0  0  0  0  0  0
    2.4440   -3.8573   32.2412 O   0  0  0  0  0  0  0  0  0  0  0  0
    0.8527   -2.1978   33.3790 N   0  0  0  0  0  0  0  0  0  0  0  0
   -0.3433   -2.4400   32.5341 C   0  0  0  0  0  0  0  0  0  0  0  0
   -0.5887   -3.9158   32.5267 C   0  0  0  0  0  0  0  0  0  0  0  0
   -0.5939   -4.4049   33.8771 C   0  0  0  0  0  0  0  0  0  0  0  0
   -0.4537   -5.6999   34.1627 C   0  0  0  0  0  0  0  0  0  0  0  0
   -0.1202   -5.8675   35.5420 N   0  0  0  0  0  0  0  0  0  0  0  0
    0.5045   -4.7556   36.3483 C   0  0  0  0  0  0  0  0  0  0  0  0
    1.2995   -5.3677   37.4843 C   0  0  0  0  0  0  0  0  0  0  0  0
    0.5887   -6.6703   37.7784 C   0  0  0  0  0  0  0  0  0  0  0  0
    1.2763   -7.5514   38.7672 C   0  0  0  0  0  0  0  0  0  0  0  0
    2.5928   -7.9980   38.6179 C   0  0  0  0  0  0  0  0  0  0  0  0
    3.1998   -8.7376   39.6329 C   0  0  0  0  0  0  0  0  0  0  0  0
    2.5009   -9.0351   40.8016 C   0  0  0  0  0  0  0  0  0  0  0  0
    1.1922   -8.5961   40.9614 C   0  0  0  0  0  0  0  0  0  0  0  0
    0.5868   -7.8565   39.9528 C   0  0  0  0  0  0  0  0  0  0  0  0
    0.3265   -7.3815   36.1626 S   0  0  0  0  0  0  0  0  0  0  0  0
    1.5574   -7.7576   35.4923 O   0  0  0  0  0  0  0  0  0  0  0  0
   -0.8729   -8.1722   36.1328 O   0  0  0  0  0  0  0  0  0  0  0  0
   -0.7036   -6.5956   33.1133 N   0  0  0  0  0  0  0  0  0  0  0  0
   -1.0781   -7.9069   33.0544 C   0  0  0  0  0  0  0  0  0  0  0  0
   -1.2936   -8.2819   31.8107 N   0  0  0  0  0  0  0  0  0  0  0  0
   -1.0858   -7.1973   31.0023 N   0  0  0  0  0  0  0  0  0  0  0  0
   -0.7967   -6.1745   31.7791 C   0  0  0  0  0  0  0  0  0  0  0  0
   -0.6346   -4.7824   31.4953 C   0  0  0  0  0  0  0  0  0  0  0  0
    2.2050   -1.4048   31.3162 C   0  0  0  0  0  0  0  0  0  0  0  0
    1.9382   -0.0620   31.6312 C   0  0  0  0  0  0  0  0  0  0  0  0
    1.1881    0.7018   30.7516 C   0  0  0  0  0  0  0  0  0  0  0  0
    0.7388    0.1132   29.5764 C   0  0  0  0  0  0  0  0  0  0  0  0
   -0.1538    0.7760   28.7922 O   0  0  0  0  0  0  0  0  0  0  0  0
    1.1284   -1.1802   29.2000 C   0  0  0  0  0  0  0  0  0  0  0  0
    1.8912   -1.9515   30.0710 C   0  0  0  0  0  0  0  0  0  0  0  0
    0.8421   -1.3494   33.9415 H   0  0  0  0  0  0  0  0  0  0  0  0
   -1.1934   -1.9258   33.0019 H   0  0  0  0  0  0  0  0  0  0  0  0
   -0.2832   -2.0281   31.5313 H   0  0  0  0  0  0  0  0  0  0  0  0
   -0.6463   -3.6406   34.6433 H   0  0  0  0  0  0  0  0  0  0  0  0
    1.1831   -4.1364   35.7522 H   0  0  0  0  0  0  0  0  0  0  0  0
   -0.2982   -4.1344   36.7636 H   0  0  0  0  0  0  0  0  0  0  0  0
    1.3434   -4.7035   38.3539 H   0  0  0  0  0  0  0  0  0  0  0  0
    2.3320   -5.5380   37.1545 H   0  0  0  0  0  0  0  0  0  0  0  0
   -0.4225   -6.4401   38.1447 H   0  0  0  0  0  0  0  0  0  0  0  0
    3.1635   -7.7783   37.7181 H   0  0  0  0  0  0  0  0  0  0  0  0
    4.2234   -9.0832   39.5112 H   0  0  0  0  0  0  0  0  0  0  0  0
    2.9803   -9.6111   41.5886 H   0  0  0  0  0  0  0  0  0  0  0  0
    0.6443   -8.8299   41.8700 H   0  0  0  0  0  0  0  0  0  0  0  0
   -0.4331   -7.5134   40.1116 H   0  0  0  0  0  0  0  0  0  0  0  0
   -1.2291   -8.5316   33.9161 H   0  0  0  0  0  0  0  0  0  0  0  0
   -0.5580   -4.4599   30.4624 H   0  0  0  0  0  0  0  0  0  0  0  0
    2.2086    0.3468   32.6025 H   0  0  0  0  0  0  0  0  0  0  0  0
    0.9021    1.7147   31.0167 H   0  0  0  0  0  0  0  0  0  0  0  0
    0.0280    1.7303   28.8235 H   0  0  0  0  0  0  0  0  0  0  0  0
    0.7647   -1.5962   28.2615 H   0  0  0  0  0  0  0  0  0  0  0  0
    2.0838   -2.9962   29.8409 H   0  0  0  0  0  0  0  0  0  0  0  0
  1  2  2  0
  2  3  2  0
  2  4  1  0
  4  5  1  0
  5  6  1  0
  6  7  1  0
  7  8  2  0
  8  9  1  0
  9 10  1  0
 10 11  1  0
 11 12  1  0
 12 13  1  0
 13 14  2  0
 14 15  1  0
 15 16  2  0
 16 17  1  0
 17 18  2  0
 12 19  1  0
 19 20  2  0
 19 21  2  0
  8 22  1  0
 22 23  1  0
 23 24  2  0
 24 25  1  0
 25 26  2  0
 26 27  1  0
  2 28  1  0
 28 29  2  0
 29 30  1  0
 30 31  2  0
 31 32  1  0
 31 33  1  0
 33 34  2  0
 27  6  2  0
 34 28  1  0
 19  9  1  0
 26 22  1  0
 18 13  1  0
  4 35  1  0
  5 36  1  0
  5 37  1  0
  7 38  1  0
 10 39  1  0
 10 40  1  0
 11 41  1  0
 11 42  1  0
 12 43  1  0
 14 44  1  0
 15 45  1  0
 16 46  1  0
 17 47  1  0
 18 48  1  0
 23 49  1  0
 27 50  1  0
 29 51  1  0
 30 52  1  0
 32 53  1  0
 33 54  1  0
 34 55  1  0
M  END
>  <Energy>  (453) 
28.294116793145324

>  <compound_id>  (453) 
4129

>  <target_id>  (453) 
1

>  <reference_id>  (453) 
144

>  <inspiration_ids>  (453) 
[144, 163]

>  <energy_score>  (453) 
-29.788876565540463

>  <distance_score>  (453) 
1.4709810101006149

>  <path>  (453) 
/opt/xchem-fragalysis-2/maxwin/BulkDock/SCRATCH/505735/C4129-P144/C4129-P144.minimised.mol

>  <scratch_subdir>  (453) 
/opt/xchem-fragalysis-2/maxwin/BulkDock/SCRATCH/505735/C4129-P144

>  <fragmenstein_runtime>  (453) 
6.223345994949341

>  <fragmenstein_outcome>  (453) 
too moved

>  <fragmenstein_mode>  (453) 
expansion

>  <fragmenstein_error>  (453) 


$$$$
C4129-P163
     RDKit          3D

 55 59  0  0  0  0  0  0  0  0999 V2000
    3.2863   -1.8868   33.6469 O   0  0  0  0  0  0  0  0  0  0  0  0
    2.3082   -2.4331   32.7352 S   0  0  0  0  0  0  0  0  0  0  0  0
    2.3514   -3.8009   32.2746 O   0  0  0  0  0  0  0  0  0  0  0  0
    0.7868   -2.1058   33.4070 N   0  0  0  0  0  0  0  0  0  0  0  0
   -0.4146   -2.3195   32.5571 C   0  0  0  0  0  0  0  0  0  0  0  0
   -0.6696   -3.7928   32.5291 C   0  0  0  0  0  0  0  0  0  0  0  0
   -0.6719   -4.2974   33.8770 C   0  0  0  0  0  0  0  0  0  0  0  0
   -0.4275   -5.5821   34.1361 C   0  0  0  0  0  0  0  0  0  0  0  0
   -0.0706   -5.7560   35.5089 N   0  0  0  0  0  0  0  0  0  0  0  0
    0.5559   -4.6308   36.3001 C   0  0  0  0  0  0  0  0  0  0  0  0
    1.3667   -5.2294   37.4361 C   0  0  0  0  0  0  0  0  0  0  0  0
    0.6630   -6.5323   37.7461 C   0  0  0  0  0  0  0  0  0  0  0  0
    1.3395   -7.4285   38.7267 C   0  0  0  0  0  0  0  0  0  0  0  0
    2.6734   -7.8313   38.6082 C   0  0  0  0  0  0  0  0  0  0  0  0
    3.2541   -8.6253   39.5967 C   0  0  0  0  0  0  0  0  0  0  0  0
    2.5109   -9.0221   40.7065 C   0  0  0  0  0  0  0  0  0  0  0  0
    1.1864   -8.6236   40.8370 C   0  0  0  0  0  0  0  0  0  0  0  0
    0.6070   -7.8283   39.8565 C   0  0  0  0  0  0  0  0  0  0  0  0
    0.4064   -7.2563   36.1338 S   0  0  0  0  0  0  0  0  0  0  0  0
    1.6435   -7.6253   35.4728 O   0  0  0  0  0  0  0  0  0  0  0  0
   -0.7677   -8.0909   36.1196 O   0  0  0  0  0  0  0  0  0  0  0  0
   -0.6107   -6.4680   33.0695 N   0  0  0  0  0  0  0  0  0  0  0  0
   -0.8580   -7.8026   32.9994 C   0  0  0  0  0  0  0  0  0  0  0  0
   -1.0825   -8.1910   31.7645 N   0  0  0  0  0  0  0  0  0  0  0  0
   -0.9923   -7.0828   30.9655 N   0  0  0  0  0  0  0  0  0  0  0  0
   -0.7662   -6.0445   31.7457 C   0  0  0  0  0  0  0  0  0  0  0  0
   -0.6928   -4.6423   31.4813 C   0  0  0  0  0  0  0  0  0  0  0  0
    2.1643   -1.3433   31.3476 C   0  0  0  0  0  0  0  0  0  0  0  0
    1.9077    0.0009   31.6648 C   0  0  0  0  0  0  0  0  0  0  0  0
    1.1635    0.7727   30.7870 C   0  0  0  0  0  0  0  0  0  0  0  0
    0.7164    0.1939   29.6060 C   0  0  0  0  0  0  0  0  0  0  0  0
   -0.1635    0.8627   28.8117 O   0  0  0  0  0  0  0  0  0  0  0  0
    1.1059   -1.0992   29.2246 C   0  0  0  0  0  0  0  0  0  0  0  0
    1.8543   -1.8822   30.0985 C   0  0  0  0  0  0  0  0  0  0  0  0
    0.7960   -1.2520   33.9618 H   0  0  0  0  0  0  0  0  0  0  0  0
   -1.2592   -1.8040   33.0329 H   0  0  0  0  0  0  0  0  0  0  0  0
   -0.3464   -1.8924   31.5611 H   0  0  0  0  0  0  0  0  0  0  0  0
   -0.7731   -3.5503   34.6560 H   0  0  0  0  0  0  0  0  0  0  0  0
    1.2179   -4.0112   35.6865 H   0  0  0  0  0  0  0  0  0  0  0  0
   -0.2458   -4.0131   36.7222 H   0  0  0  0  0  0  0  0  0  0  0  0
    1.4141   -4.5582   38.2999 H   0  0  0  0  0  0  0  0  0  0  0  0
    2.3968   -5.3965   37.0980 H   0  0  0  0  0  0  0  0  0  0  0  0
   -0.3483   -6.3002   38.1118 H   0  0  0  0  0  0  0  0  0  0  0  0
    3.2763   -7.5449   37.7496 H   0  0  0  0  0  0  0  0  0  0  0  0
    4.2869   -8.9488   39.4964 H   0  0  0  0  0  0  0  0  0  0  0  0
    2.9611   -9.6600   41.4624 H   0  0  0  0  0  0  0  0  0  0  0  0
    0.6018   -8.9536   41.6912 H   0  0  0  0  0  0  0  0  0  0  0  0
   -0.4303   -7.5329   39.9898 H   0  0  0  0  0  0  0  0  0  0  0  0
   -0.9134   -8.4219   33.8668 H   0  0  0  0  0  0  0  0  0  0  0  0
   -0.6192   -4.3025   30.4535 H   0  0  0  0  0  0  0  0  0  0  0  0
    2.1793    0.4059   32.6375 H   0  0  0  0  0  0  0  0  0  0  0  0
    0.8892    1.7882   31.0559 H   0  0  0  0  0  0  0  0  0  0  0  0
   -0.2008    1.8023   29.0562 H   0  0  0  0  0  0  0  0  0  0  0  0
    0.7477   -1.5065   28.2803 H   0  0  0  0  0  0  0  0  0  0  0  0
    2.0396   -2.9272   29.8652 H   0  0  0  0  0  0  0  0  0  0  0  0
  1  2  2  0
  2  3  2  0
  2  4  1  0
  4  5  1  0
  5  6  1  0
  6  7  1  0
  7  8  2  0
  8  9  1  0
  9 10  1  0
 10 11  1  0
 11 12  1  0
 12 13  1  0
 13 14  2  0
 14 15  1  0
 15 16  2  0
 16 17  1  0
 17 18  2  0
 12 19  1  0
 19 20  2  0
 19 21  2  0
  8 22  1  0
 22 23  1  0
 23 24  2  0
 24 25  1  0
 25 26  2  0
 26 27  1  0
  2 28  1  0
 28 29  2  0
 29 30  1  0
 30 31  2  0
 31 32  1  0
 31 33  1  0
 33 34  2  0
 27  6  2  0
 34 28  1  0
 19  9  1  0
 26 22  1  0
 18 13  1  0
  4 35  1  0
  5 36  1  0
  5 37  1  0
  7 38  1  0
 10 39  1  0
 10 40  1  0
 11 41  1  0
 11 42  1  0
 12 43  1  0
 14 44  1  0
 15 45  1  0
 16 46  1  0
 17 47  1  0
 18 48  1  0
 23 49  1  0
 27 50  1  0
 29 51  1  0
 30 52  1  0
 32 53  1  0
 33 54  1  0
 34 55  1  0
M  END
>  <Energy>  (454) 
27.535130721627755

>  <compound_id>  (454) 
4129

>  <target_id>  (454) 
1

>  <reference_id>  (454) 
163

>  <inspiration_ids>  (454) 
[144, 163]

>  <energy_score>  (454) 
-30.547862637057747

>  <distance_score>  (454) 
1.4913311171408785

>  <path>  (454) 
/opt/xchem-fragalysis-2/maxwin/BulkDock/SCRATCH/505735/C4129-P163/C4129-P163.minimised.mol

>  <scratch_subdir>  (454) 
/opt/xchem-fragalysis-2/maxwin/BulkDock/SCRATCH/505735/C4129-P163

>  <fragmenstein_runtime>  (454) 
6.293657302856445

>  <fragmenstein_outcome>  (454) 
too moved

>  <fragmenstein_mode>  (454) 
expansion

>  <fragmenstein_error>  (454) 


$$$$
C4132-P144
     RDKit          3D

 50 54  0  0  0  0  0  0  0  0999 V2000
    5.6961   -4.3701   29.2486 O   0  0  0  0  0  0  0  0  0  0  0  0
    6.0548   -4.6831   30.6121 S   0  0  0  0  0  0  0  0  0  0  0  0
    7.0224   -3.8999   31.3469 O   0  0  0  0  0  0  0  0  0  0  0  0
    4.6160   -4.6470   31.5596 N   0  0  0  0  0  0  0  0  0  0  0  0
    3.4052   -3.8658   31.0800 C   0  0  0  0  0  0  0  0  0  0  0  0
    2.0603   -4.5469   31.5313 C   0  0  0  0  0  0  0  0  0  0  0  0
    1.7341   -4.5963   32.9704 C   0  0  0  0  0  0  0  0  0  0  0  0
    0.7301   -5.3843   33.4198 C   0  0  0  0  0  0  0  0  0  0  0  0
    0.4864   -5.4184   34.8221 N   0  0  0  0  0  0  0  0  0  0  0  0
    0.5430   -4.2452   35.7224 C   0  0  0  0  0  0  0  0  0  0  0  0
    0.5600   -4.7904   37.1503 C   0  0  0  0  0  0  0  0  0  0  0  0
    1.4730   -6.0193   37.0992 C   0  0  0  0  0  0  0  0  0  0  0  0
    1.5180   -6.9205   38.3026 C   0  0  0  0  0  0  0  0  0  0  0  0
    2.7021   -7.6244   38.5825 C   0  0  0  0  0  0  0  0  0  0  0  0
    2.8019   -8.4409   39.7105 C   0  0  0  0  0  0  0  0  0  0  0  0
    1.7176   -8.5742   40.5718 C   0  0  0  0  0  0  0  0  0  0  0  0
    0.5330   -7.8961   40.3022 C   0  0  0  0  0  0  0  0  0  0  0  0
    0.4336   -7.0743   39.1775 C   0  0  0  0  0  0  0  0  0  0  0  0
    0.8787   -6.8923   35.6409 S   0  0  0  0  0  0  0  0  0  0  0  0
    1.9576   -7.5319   34.9108 O   0  0  0  0  0  0  0  0  0  0  0  0
   -0.3796   -7.5520   35.8942 O   0  0  0  0  0  0  0  0  0  0  0  0
   -0.0180   -6.1342   32.5083 N   0  0  0  0  0  0  0  0  0  0  0  0
   -1.0279   -7.0493   32.6614 C   0  0  0  0  0  0  0  0  0  0  0  0
   -1.3904   -7.5255   31.4890 N   0  0  0  0  0  0  0  0  0  0  0  0
   -0.6274   -6.8956   30.5297 N   0  0  0  0  0  0  0  0  0  0  0  0
    0.1760   -6.0437   31.1387 C   0  0  0  0  0  0  0  0  0  0  0  0
    1.2219   -5.1817   30.6626 C   0  0  0  0  0  0  0  0  0  0  0  0
    6.8316   -6.3072   30.4367 C   0  0  0  0  0  0  0  0  0  0  0  0
    6.8975   -6.9667   29.2147 C   0  0  0  0  0  0  0  0  0  0  0  0
    7.7612   -8.4441   29.3561 S   0  0  0  0  0  0  0  0  0  0  0  0
    8.0082   -8.1021   31.0189 C   0  0  0  0  0  0  0  0  0  0  0  0
    7.4669   -6.9894   31.4820 N   0  0  0  0  0  0  0  0  0  0  0  0
    4.8841   -4.4188   32.5187 H   0  0  0  0  0  0  0  0  0  0  0  0
    3.4560   -2.8494   31.4842 H   0  0  0  0  0  0  0  0  0  0  0  0
    3.4085   -3.8050   29.9875 H   0  0  0  0  0  0  0  0  0  0  0  0
    2.3663   -4.0114   33.6276 H   0  0  0  0  0  0  0  0  0  0  0  0
   -0.3305   -3.6050   35.5655 H   0  0  0  0  0  0  0  0  0  0  0  0
    1.4480   -3.6547   35.5543 H   0  0  0  0  0  0  0  0  0  0  0  0
    0.9145   -4.0420   37.8662 H   0  0  0  0  0  0  0  0  0  0  0  0
   -0.4661   -5.0571   37.4299 H   0  0  0  0  0  0  0  0  0  0  0  0
    2.4909   -5.6834   36.8583 H   0  0  0  0  0  0  0  0  0  0  0  0
    3.5653   -7.5437   37.9243 H   0  0  0  0  0  0  0  0  0  0  0  0
    3.7248   -8.9774   39.9135 H   0  0  0  0  0  0  0  0  0  0  0  0
    1.7878   -9.2159   41.4454 H   0  0  0  0  0  0  0  0  0  0  0  0
   -0.3220   -8.0146   40.9630 H   0  0  0  0  0  0  0  0  0  0  0  0
   -0.5148   -6.5732   39.0005 H   0  0  0  0  0  0  0  0  0  0  0  0
   -1.4458   -7.3337   33.6165 H   0  0  0  0  0  0  0  0  0  0  0  0
    1.4112   -5.1746   29.5938 H   0  0  0  0  0  0  0  0  0  0  0  0
    6.5049   -6.6434   28.2611 H   0  0  0  0  0  0  0  0  0  0  0  0
    8.5817   -8.7578   31.6575 H   0  0  0  0  0  0  0  0  0  0  0  0
  1  2  2  0
  2  3  2  0
  2  4  1  0
  4  5  1  0
  5  6  1  0
  6  7  1  0
  7  8  2  0
  8  9  1  0
  9 10  1  0
 10 11  1  0
 11 12  1  0
 12 13  1  0
 13 14  2  0
 14 15  1  0
 15 16  2  0
 16 17  1  0
 17 18  2  0
 12 19  1  0
 19 20  2  0
 19 21  2  0
  8 22  1  0
 22 23  1  0
 23 24  2  0
 24 25  1  0
 25 26  2  0
 26 27  1  0
  2 28  1  0
 28 29  2  0
 29 30  1  0
 30 31  1  0
 31 32  2  0
 27  6  2  0
 32 28  1  0
 19  9  1  0
 26 22  1  0
 18 13  1  0
  4 33  1  0
  5 34  1  0
  5 35  1  0
  7 36  1  0
 10 37  1  0
 10 38  1  0
 11 39  1  0
 11 40  1  0
 12 41  1  0
 14 42  1  0
 15 43  1  0
 16 44  1  0
 17 45  1  0
 18 46  1  0
 23 47  1  0
 27 48  1  0
 29 49  1  0
 31 50  1  0
M  END
>  <Energy>  (455) 
52.417826209088361

>  <compound_id>  (455) 
4132

>  <target_id>  (455) 
1

>  <reference_id>  (455) 
144

>  <inspiration_ids>  (455) 
[144, 175]

>  <energy_score>  (455) 
-91.11295842939015

>  <distance_score>  (455) 
1.718488450456117

>  <path>  (455) 
/opt/xchem-fragalysis-2/maxwin/BulkDock/SCRATCH/505735/C4132-P144/C4132-P144.minimised.mol

>  <scratch_subdir>  (455) 
/opt/xchem-fragalysis-2/maxwin/BulkDock/SCRATCH/505735/C4132-P144

>  <fragmenstein_runtime>  (455) 
4.101700067520142

>  <fragmenstein_outcome>  (455) 
too moved

>  <fragmenstein_mode>  (455) 
expansion

>  <fragmenstein_error>  (455) 


$$$$
C4132-P175
     RDKit          3D

 50 54  0  0  0  0  0  0  0  0999 V2000
    6.2093   -4.4692   29.2029 O   0  0  0  0  0  0  0  0  0  0  0  0
    6.4371   -4.9649   30.5395 S   0  0  0  0  0  0  0  0  0  0  0  0
    7.3945   -4.3452   31.4288 O   0  0  0  0  0  0  0  0  0  0  0  0
    4.9346   -4.8872   31.3874 N   0  0  0  0  0  0  0  0  0  0  0  0
    3.6762   -4.4888   30.6783 C   0  0  0  0  0  0  0  0  0  0  0  0
    2.3931   -5.1533   31.2744 C   0  0  0  0  0  0  0  0  0  0  0  0
    2.0633   -5.0199   32.7105 C   0  0  0  0  0  0  0  0  0  0  0  0
    1.0017   -5.6785   33.2362 C   0  0  0  0  0  0  0  0  0  0  0  0
    0.7567   -5.5533   34.6353 N   0  0  0  0  0  0  0  0  0  0  0  0
    0.8987   -4.3174   35.4339 C   0  0  0  0  0  0  0  0  0  0  0  0
    0.8200   -4.7389   36.9047 C   0  0  0  0  0  0  0  0  0  0  0  0
    1.6434   -6.0271   36.9918 C   0  0  0  0  0  0  0  0  0  0  0  0
    1.5788   -6.8450   38.2539 C   0  0  0  0  0  0  0  0  0  0  0  0
    2.7058   -7.5940   38.6361 C   0  0  0  0  0  0  0  0  0  0  0  0
    2.6971   -8.3619   39.8018 C   0  0  0  0  0  0  0  0  0  0  0  0
    1.5598   -8.3989   40.6019 C   0  0  0  0  0  0  0  0  0  0  0  0
    0.4317   -7.6715   40.2341 C   0  0  0  0  0  0  0  0  0  0  0  0
    0.4400   -6.8996   39.0696 C   0  0  0  0  0  0  0  0  0  0  0  0
    1.0486   -6.9741   35.5817 S   0  0  0  0  0  0  0  0  0  0  0  0
    2.1253   -7.7135   34.9476 O   0  0  0  0  0  0  0  0  0  0  0  0
   -0.2516   -7.5386   35.8495 O   0  0  0  0  0  0  0  0  0  0  0  0
    0.1951   -6.4646   32.4041 N   0  0  0  0  0  0  0  0  0  0  0  0
   -0.9037   -7.2527   32.6355 C   0  0  0  0  0  0  0  0  0  0  0  0
   -1.3333   -7.7776   31.5067 N   0  0  0  0  0  0  0  0  0  0  0  0
   -0.5050   -7.3365   30.4998 N   0  0  0  0  0  0  0  0  0  0  0  0
    0.4052   -6.5489   31.0380 C   0  0  0  0  0  0  0  0  0  0  0  0
    1.5281   -5.8504   30.4896 C   0  0  0  0  0  0  0  0  0  0  0  0
    7.1170   -6.6147   30.2488 C   0  0  0  0  0  0  0  0  0  0  0  0
    7.0024   -7.2650   29.0279 C   0  0  0  0  0  0  0  0  0  0  0  0
    7.8538   -8.7621   29.0435 S   0  0  0  0  0  0  0  0  0  0  0  0
    8.3285   -8.4519   30.6622 C   0  0  0  0  0  0  0  0  0  0  0  0
    7.8885   -7.3244   31.1915 N   0  0  0  0  0  0  0  0  0  0  0  0
    5.1042   -4.3652   32.2491 H   0  0  0  0  0  0  0  0  0  0  0  0
    3.5724   -3.4001   30.7415 H   0  0  0  0  0  0  0  0  0  0  0  0
    3.7500   -4.7681   29.6219 H   0  0  0  0  0  0  0  0  0  0  0  0
    2.7338   -4.4144   33.3082 H   0  0  0  0  0  0  0  0  0  0  0  0
    0.0953   -3.6149   35.1927 H   0  0  0  0  0  0  0  0  0  0  0  0
    1.8615   -3.8332   35.2463 H   0  0  0  0  0  0  0  0  0  0  0  0
    1.2030   -3.9592   37.5707 H   0  0  0  0  0  0  0  0  0  0  0  0
   -0.2316   -4.9103   37.1630 H   0  0  0  0  0  0  0  0  0  0  0  0
    2.6912   -5.7804   36.7720 H   0  0  0  0  0  0  0  0  0  0  0  0
    3.6063   -7.5938   38.0244 H   0  0  0  0  0  0  0  0  0  0  0  0
    3.5751   -8.9384   40.0802 H   0  0  0  0  0  0  0  0  0  0  0  0
    1.5450   -9.0044   41.5037 H   0  0  0  0  0  0  0  0  0  0  0  0
   -0.4641   -7.7149   40.8483 H   0  0  0  0  0  0  0  0  0  0  0  0
   -0.4698   -6.3649   38.8082 H   0  0  0  0  0  0  0  0  0  0  0  0
   -1.3398   -7.4121   33.6112 H   0  0  0  0  0  0  0  0  0  0  0  0
    1.6998   -5.9462   29.4240 H   0  0  0  0  0  0  0  0  0  0  0  0
    6.4989   -6.9241   28.1341 H   0  0  0  0  0  0  0  0  0  0  0  0
    8.9472   -9.1471   31.2161 H   0  0  0  0  0  0  0  0  0  0  0  0
  1  2  2  0
  2  3  2  0
  2  4  1  0
  4  5  1  0
  5  6  1  0
  6  7  1  0
  7  8  2  0
  8  9  1  0
  9 10  1  0
 10 11  1  0
 11 12  1  0
 12 13  1  0
 13 14  2  0
 14 15  1  0
 15 16  2  0
 16 17  1  0
 17 18  2  0
 12 19  1  0
 19 20  2  0
 19 21  2  0
  8 22  1  0
 22 23  1  0
 23 24  2  0
 24 25  1  0
 25 26  2  0
 26 27  1  0
  2 28  1  0
 28 29  2  0
 29 30  1  0
 30 31  1  0
 31 32  2  0
 27  6  2  0
 32 28  1  0
 19  9  1  0
 26 22  1  0
 18 13  1  0
  4 33  1  0
  5 34  1  0
  5 35  1  0
  7 36  1  0
 10 37  1  0
 10 38  1  0
 11 39  1  0
 11 40  1  0
 12 41  1  0
 14 42  1  0
 15 43  1  0
 16 44  1  0
 17 45  1  0
 18 46  1  0
 23 47  1  0
 27 48  1  0
 29 49  1  0
 31 50  1  0
M  END
>  <Energy>  (456) 
51.586134112581199

>  <compound_id>  (456) 
4132

>  <target_id>  (456) 
1

>  <reference_id>  (456) 
175

>  <inspiration_ids>  (456) 
[144, 175]

>  <energy_score>  (456) 
-91.94465052589422

>  <distance_score>  (456) 
1.5262569204837642

>  <path>  (456) 
/opt/xchem-fragalysis-2/maxwin/BulkDock/SCRATCH/505735/C4132-P175/C4132-P175.minimised.mol

>  <scratch_subdir>  (456) 
/opt/xchem-fragalysis-2/maxwin/BulkDock/SCRATCH/505735/C4132-P175

>  <fragmenstein_runtime>  (456) 
3.8687102794647217

>  <fragmenstein_outcome>  (456) 
too moved

>  <fragmenstein_mode>  (456) 
expansion

>  <fragmenstein_error>  (456) 


$$$$
C4133-P144
     RDKit          3D

 58 62  0  0  0  0  0  0  0  0999 V2000
   -1.3320   -1.7543   28.8179 N   0  0  0  0  0  0  0  0  0  0  0  0
   -0.0112   -2.0541   28.4892 C   0  0  0  0  0  0  0  0  0  0  0  0
    0.3646   -3.3664   28.2983 C   0  0  0  0  0  0  0  0  0  0  0  0
    1.6524   -3.6212   27.8630 C   0  0  0  0  0  0  0  0  0  0  0  0
    2.5240   -2.5736   27.6424 C   0  0  0  0  0  0  0  0  0  0  0  0
    4.1855   -2.9449   27.3080 S   0  0  0  0  0  0  0  0  0  0  0  0
    4.2159   -4.1471   26.5072 O   0  0  0  0  0  0  0  0  0  0  0  0
    4.8875   -1.7343   26.9605 O   0  0  0  0  0  0  0  0  0  0  0  0
    4.6595   -3.3322   28.8712 N   0  0  0  0  0  0  0  0  0  0  0  0
    3.9861   -4.3738   29.6825 C   0  0  0  0  0  0  0  0  0  0  0  0
    2.9497   -3.8112   30.7575 C   0  0  0  0  0  0  0  0  0  0  0  0
    1.7372   -4.6711   31.2872 C   0  0  0  0  0  0  0  0  0  0  0  0
    1.4355   -4.6025   32.7395 C   0  0  0  0  0  0  0  0  0  0  0  0
    0.5380   -5.4462   33.3050 C   0  0  0  0  0  0  0  0  0  0  0  0
    0.3798   -5.4111   34.7242 N   0  0  0  0  0  0  0  0  0  0  0  0
    0.5188   -4.2102   35.5783 C   0  0  0  0  0  0  0  0  0  0  0  0
    0.5497   -4.7069   37.0252 C   0  0  0  0  0  0  0  0  0  0  0  0
    1.4471   -5.9472   37.0004 C   0  0  0  0  0  0  0  0  0  0  0  0
    1.4967   -6.8219   38.2246 C   0  0  0  0  0  0  0  0  0  0  0  0
    2.6752   -7.5356   38.5051 C   0  0  0  0  0  0  0  0  0  0  0  0
    2.7735   -8.3430   39.6401 C   0  0  0  0  0  0  0  0  0  0  0  0
    1.6935   -8.4566   40.5093 C   0  0  0  0  0  0  0  0  0  0  0  0
    0.5155   -7.7662   40.2416 C   0  0  0  0  0  0  0  0  0  0  0  0
    0.4171   -6.9541   39.1092 C   0  0  0  0  0  0  0  0  0  0  0  0
    0.8249   -6.8587   35.5768 S   0  0  0  0  0  0  0  0  0  0  0  0
    1.8988   -7.4959   34.8364 O   0  0  0  0  0  0  0  0  0  0  0  0
   -0.4113   -7.5369   35.8837 O   0  0  0  0  0  0  0  0  0  0  0  0
   -0.1821   -6.3257   32.4879 N   0  0  0  0  0  0  0  0  0  0  0  0
   -1.1640   -7.2507   32.7346 C   0  0  0  0  0  0  0  0  0  0  0  0
   -1.5581   -7.8087   31.6085 N   0  0  0  0  0  0  0  0  0  0  0  0
   -0.8252   -7.2535   30.5871 N   0  0  0  0  0  0  0  0  0  0  0  0
   -0.0059   -6.3682   31.1169 C   0  0  0  0  0  0  0  0  0  0  0  0
    1.0109   -5.5444   30.5472 C   0  0  0  0  0  0  0  0  0  0  0  0
    2.0762   -1.2957   27.8156 C   0  0  0  0  0  0  0  0  0  0  0  0
    0.8240   -1.0315   28.2503 N   0  0  0  0  0  0  0  0  0  0  0  0
   -1.9031   -2.0288   28.0132 H   0  0  0  0  0  0  0  0  0  0  0  0
   -1.6443   -2.3168   29.5981 H   0  0  0  0  0  0  0  0  0  0  0  0
   -0.3570   -4.1640   28.4334 H   0  0  0  0  0  0  0  0  0  0  0  0
    1.9917   -4.6292   27.6834 H   0  0  0  0  0  0  0  0  0  0  0  0
    5.2446   -2.6317   29.3256 H   0  0  0  0  0  0  0  0  0  0  0  0
    4.7875   -4.8821   30.2330 H   0  0  0  0  0  0  0  0  0  0  0  0
    3.5436   -5.1438   29.0478 H   0  0  0  0  0  0  0  0  0  0  0  0
    2.5375   -2.8542   30.4209 H   0  0  0  0  0  0  0  0  0  0  0  0
    3.5675   -3.5461   31.6276 H   0  0  0  0  0  0  0  0  0  0  0  0
    2.0264   -3.9012   33.3167 H   0  0  0  0  0  0  0  0  0  0  0  0
    1.4484   -3.6746   35.3659 H   0  0  0  0  0  0  0  0  0  0  0  0
   -0.3266   -3.5334   35.4221 H   0  0  0  0  0  0  0  0  0  0  0  0
   -0.4747   -4.9513   37.3300 H   0  0  0  0  0  0  0  0  0  0  0  0
    0.9262   -3.9399   37.7094 H   0  0  0  0  0  0  0  0  0  0  0  0
    2.4656   -5.6306   36.7373 H   0  0  0  0  0  0  0  0  0  0  0  0
    3.5340   -7.4733   37.8392 H   0  0  0  0  0  0  0  0  0  0  0  0
    3.6911   -8.8894   39.8409 H   0  0  0  0  0  0  0  0  0  0  0  0
    1.7616   -9.0926   41.3872 H   0  0  0  0  0  0  0  0  0  0  0  0
   -0.3363   -7.8688   40.9093 H   0  0  0  0  0  0  0  0  0  0  0  0
   -0.5285   -6.4475   38.9318 H   0  0  0  0  0  0  0  0  0  0  0  0
   -1.5584   -7.4706   33.7158 H   0  0  0  0  0  0  0  0  0  0  0  0
    1.2202   -5.7108   29.5044 H   0  0  0  0  0  0  0  0  0  0  0  0
    2.7050   -0.4262   27.6498 H   0  0  0  0  0  0  0  0  0  0  0  0
  1  2  1  0
  2  3  2  0
  3  4  1  0
  4  5  2  0
  5  6  1  0
  6  7  2  0
  6  8  2  0
  6  9  1  0
  9 10  1  0
 10 11  1  0
 11 12  1  0
 12 13  1  0
 13 14  2  0
 14 15  1  0
 15 16  1  0
 16 17  1  0
 17 18  1  0
 18 19  1  0
 19 20  2  0
 20 21  1  0
 21 22  2  0
 22 23  1  0
 23 24  2  0
 18 25  1  0
 25 26  2  0
 25 27  2  0
 14 28  1  0
 28 29  1  0
 29 30  2  0
 30 31  1  0
 31 32  2  0
 32 33  1  0
  5 34  1  0
 34 35  2  0
 35  2  1  0
 33 12  2  0
 25 15  1  0
 32 28  1  0
 24 19  1  0
  1 36  1  0
  1 37  1  0
  3 38  1  0
  4 39  1  0
  9 40  1  0
 10 41  1  0
 10 42  1  0
 11 43  1  0
 11 44  1  0
 13 45  1  0
 16 46  1  0
 16 47  1  0
 17 48  1  0
 17 49  1  0
 18 50  1  0
 20 51  1  0
 21 52  1  0
 22 53  1  0
 23 54  1  0
 24 55  1  0
 29 56  1  0
 33 57  1  0
 34 58  1  0
M  END
>  <Energy>  (457) 
-5.1705305559047581

>  <compound_id>  (457) 
4133

>  <target_id>  (457) 
1

>  <reference_id>  (457) 
144

>  <inspiration_ids>  (457) 
[144, 177]

>  <energy_score>  (457) 
-51.60492692116111

>  <distance_score>  (457) 
1.4601998297288474

>  <path>  (457) 
/opt/xchem-fragalysis-2/maxwin/BulkDock/SCRATCH/505735/C4133-P144/C4133-P144.minimised.mol

>  <scratch_subdir>  (457) 
/opt/xchem-fragalysis-2/maxwin/BulkDock/SCRATCH/505735/C4133-P144

>  <fragmenstein_runtime>  (457) 
5.534319162368774

>  <fragmenstein_outcome>  (457) 
too moved

>  <fragmenstein_mode>  (457) 
expansion

>  <fragmenstein_error>  (457) 


$$$$
C4133-P177
     RDKit          3D

 58 62  0  0  0  0  0  0  0  0999 V2000
   -1.1915   -2.6096   28.3042 N   0  0  0  0  0  0  0  0  0  0  0  0
    0.0077   -2.9389   27.6902 C   0  0  0  0  0  0  0  0  0  0  0  0
    0.4798   -4.2370   27.6813 C   0  0  0  0  0  0  0  0  0  0  0  0
    1.7909   -4.4660   27.2778 C   0  0  0  0  0  0  0  0  0  0  0  0
    2.5643   -3.3814   26.8953 C   0  0  0  0  0  0  0  0  0  0  0  0
    4.2925   -3.4741   27.1241 S   0  0  0  0  0  0  0  0  0  0  0  0
    4.8302   -4.5111   26.2805 O   0  0  0  0  0  0  0  0  0  0  0  0
    4.8609   -2.1493   27.2188 O   0  0  0  0  0  0  0  0  0  0  0  0
    4.2841   -4.0938   28.7315 N   0  0  0  0  0  0  0  0  0  0  0  0
    3.6867   -3.2061   29.7678 C   0  0  0  0  0  0  0  0  0  0  0  0
    3.3607   -3.8548   31.1626 C   0  0  0  0  0  0  0  0  0  0  0  0
    2.0410   -4.5927   31.5508 C   0  0  0  0  0  0  0  0  0  0  0  0
    1.7106   -4.6129   32.9962 C   0  0  0  0  0  0  0  0  0  0  0  0
    0.7168   -5.3976   33.4686 C   0  0  0  0  0  0  0  0  0  0  0  0
    0.4690   -5.4026   34.8713 N   0  0  0  0  0  0  0  0  0  0  0  0
    0.5080   -4.2001   35.7325 C   0  0  0  0  0  0  0  0  0  0  0  0
    0.4711   -4.7084   37.1729 C   0  0  0  0  0  0  0  0  0  0  0  0
    1.4354   -5.8975   37.1996 C   0  0  0  0  0  0  0  0  0  0  0  0
    1.4460   -6.7974   38.4049 C   0  0  0  0  0  0  0  0  0  0  0  0
    2.5442   -7.6527   38.6014 C   0  0  0  0  0  0  0  0  0  0  0  0
    2.5969   -8.5087   39.7013 C   0  0  0  0  0  0  0  0  0  0  0  0
    1.5542   -8.5257   40.6215 C   0  0  0  0  0  0  0  0  0  0  0  0
    0.4629   -7.6809   40.4475 C   0  0  0  0  0  0  0  0  0  0  0  0
    0.4107   -6.8186   39.3505 C   0  0  0  0  0  0  0  0  0  0  0  0
    0.9628   -6.8226   35.7228 S   0  0  0  0  0  0  0  0  0  0  0  0
    2.1233   -7.3758   35.0510 O   0  0  0  0  0  0  0  0  0  0  0  0
   -0.2354   -7.6002   35.9445 O   0  0  0  0  0  0  0  0  0  0  0  0
   -0.0291   -6.1662   32.5779 N   0  0  0  0  0  0  0  0  0  0  0  0
   -1.0324   -7.0799   32.7569 C   0  0  0  0  0  0  0  0  0  0  0  0
   -1.4323   -7.5491   31.5951 N   0  0  0  0  0  0  0  0  0  0  0  0
   -0.6832   -6.9295   30.6183 N   0  0  0  0  0  0  0  0  0  0  0  0
    0.1555   -6.1001   31.2099 C   0  0  0  0  0  0  0  0  0  0  0  0
    1.2233   -5.2762   30.7210 C   0  0  0  0  0  0  0  0  0  0  0  0
    1.9879   -2.1394   26.8219 C   0  0  0  0  0  0  0  0  0  0  0  0
    0.7174   -1.9073   27.2174 N   0  0  0  0  0  0  0  0  0  0  0  0
   -1.9591   -3.1683   27.9125 H   0  0  0  0  0  0  0  0  0  0  0  0
   -1.3497   -1.6227   28.1260 H   0  0  0  0  0  0  0  0  0  0  0  0
   -0.1452   -5.0471   28.0439 H   0  0  0  0  0  0  0  0  0  0  0  0
    2.2369   -5.4528   27.3763 H   0  0  0  0  0  0  0  0  0  0  0  0
    5.2029   -4.4910   28.9331 H   0  0  0  0  0  0  0  0  0  0  0  0
    2.7713   -2.7259   29.4202 H   0  0  0  0  0  0  0  0  0  0  0  0
    4.4216   -2.4116   29.9515 H   0  0  0  0  0  0  0  0  0  0  0  0
    4.2007   -4.4991   31.4508 H   0  0  0  0  0  0  0  0  0  0  0  0
    3.4081   -2.9979   31.8525 H   0  0  0  0  0  0  0  0  0  0  0  0
    2.3372   -4.0112   33.6445 H   0  0  0  0  0  0  0  0  0  0  0  0
    1.4224   -3.6210   35.5749 H   0  0  0  0  0  0  0  0  0  0  0  0
   -0.3566   -3.5608   35.5292 H   0  0  0  0  0  0  0  0  0  0  0  0
   -0.5560   -5.0165   37.4036 H   0  0  0  0  0  0  0  0  0  0  0  0
    0.7561   -3.9293   37.8869 H   0  0  0  0  0  0  0  0  0  0  0  0
    2.4527   -5.5245   37.0192 H   0  0  0  0  0  0  0  0  0  0  0  0
    3.3677   -7.6763   37.8900 H   0  0  0  0  0  0  0  0  0  0  0  0
    3.4369   -9.1865   39.8277 H   0  0  0  0  0  0  0  0  0  0  0  0
    1.5820   -9.2175   41.4591 H   0  0  0  0  0  0  0  0  0  0  0  0
   -0.3547   -7.7025   41.1634 H   0  0  0  0  0  0  0  0  0  0  0  0
   -0.4622   -6.1783   39.2568 H   0  0  0  0  0  0  0  0  0  0  0  0
   -1.4209   -7.3642   33.7233 H   0  0  0  0  0  0  0  0  0  0  0  0
    1.4630   -5.3492   29.6767 H   0  0  0  0  0  0  0  0  0  0  0  0
    2.5666   -1.2533   26.5717 H   0  0  0  0  0  0  0  0  0  0  0  0
  1  2  1  0
  2  3  2  0
  3  4  1  0
  4  5  2  0
  5  6  1  0
  6  7  2  0
  6  8  2  0
  6  9  1  0
  9 10  1  0
 10 11  1  0
 11 12  1  0
 12 13  1  0
 13 14  2  0
 14 15  1  0
 15 16  1  0
 16 17  1  0
 17 18  1  0
 18 19  1  0
 19 20  2  0
 20 21  1  0
 21 22  2  0
 22 23  1  0
 23 24  2  0
 18 25  1  0
 25 26  2  0
 25 27  2  0
 14 28  1  0
 28 29  1  0
 29 30  2  0
 30 31  1  0
 31 32  2  0
 32 33  1  0
  5 34  1  0
 34 35  2  0
 35  2  1  0
 33 12  2  0
 25 15  1  0
 32 28  1  0
 24 19  1  0
  1 36  1  0
  1 37  1  0
  3 38  1  0
  4 39  1  0
  9 40  1  0
 10 41  1  0
 10 42  1  0
 11 43  1  0
 11 44  1  0
 13 45  1  0
 16 46  1  0
 16 47  1  0
 17 48  1  0
 17 49  1  0
 18 50  1  0
 20 51  1  0
 21 52  1  0
 22 53  1  0
 23 54  1  0
 24 55  1  0
 29 56  1  0
 33 57  1  0
 34 58  1  0
M  END
>  <Energy>  (458) 
-12.875384671798477

>  <compound_id>  (458) 
4133

>  <target_id>  (458) 
1

>  <reference_id>  (458) 
177

>  <inspiration_ids>  (458) 
[144, 177]

>  <energy_score>  (458) 
-59.30978103705536

>  <distance_score>  (458) 
1.3477965830448606

>  <path>  (458) 
/opt/xchem-fragalysis-2/maxwin/BulkDock/SCRATCH/505735/C4133-P177/C4133-P177.minimised.mol

>  <scratch_subdir>  (458) 
/opt/xchem-fragalysis-2/maxwin/BulkDock/SCRATCH/505735/C4133-P177

>  <fragmenstein_runtime>  (458) 
5.019195318222046

>  <fragmenstein_outcome>  (458) 
too moved

>  <fragmenstein_mode>  (458) 
expansion

>  <fragmenstein_error>  (458) 


$$$$
C4133-P144
     RDKit          3D

 58 62  0  0  0  0  0  0  0  0999 V2000
   -1.3125    0.6294   28.0287 N   0  0  0  0  0  0  0  0  0  0  0  0
   -0.2822   -0.2806   28.1541 C   0  0  0  0  0  0  0  0  0  0  0  0
   -0.5433   -1.6364   28.2698 C   0  0  0  0  0  0  0  0  0  0  0  0
    0.5299   -2.5130   28.3420 C   0  0  0  0  0  0  0  0  0  0  0  0
    1.8159   -1.9849   28.3459 C   0  0  0  0  0  0  0  0  0  0  0  0
    3.2268   -2.9941   28.4993 S   0  0  0  0  0  0  0  0  0  0  0  0
    2.9131   -4.3228   28.0242 O   0  0  0  0  0  0  0  0  0  0  0  0
    4.3734   -2.2665   28.0064 O   0  0  0  0  0  0  0  0  0  0  0  0
    3.4011   -3.0293   30.1649 N   0  0  0  0  0  0  0  0  0  0  0  0
    2.7230   -4.0607   30.9070 C   0  0  0  0  0  0  0  0  0  0  0  0
    1.3807   -3.6003   31.4131 C   0  0  0  0  0  0  0  0  0  0  0  0
    0.5649   -4.7506   31.8824 C   0  0  0  0  0  0  0  0  0  0  0  0
    0.4419   -4.8379   33.3189 C   0  0  0  0  0  0  0  0  0  0  0  0
   -0.2371   -5.8551   33.8628 C   0  0  0  0  0  0  0  0  0  0  0  0
   -0.2776   -5.8705   35.2813 N   0  0  0  0  0  0  0  0  0  0  0  0
   -0.2735   -4.6571   36.1376 C   0  0  0  0  0  0  0  0  0  0  0  0
   -0.0071   -5.1407   37.5556 C   0  0  0  0  0  0  0  0  0  0  0  0
    1.1201   -6.1664   37.4216 C   0  0  0  0  0  0  0  0  0  0  0  0
    1.4134   -7.0485   38.6032 C   0  0  0  0  0  0  0  0  0  0  0  0
    2.6735   -7.6608   38.7040 C   0  0  0  0  0  0  0  0  0  0  0  0
    2.9828   -8.4826   39.7885 C   0  0  0  0  0  0  0  0  0  0  0  0
    2.0369   -8.7102   40.7836 C   0  0  0  0  0  0  0  0  0  0  0  0
    0.7826   -8.1165   40.6959 C   0  0  0  0  0  0  0  0  0  0  0  0
    0.4750   -7.2882   39.6173 C   0  0  0  0  0  0  0  0  0  0  0  0
    0.6087   -7.1573   36.0042 S   0  0  0  0  0  0  0  0  0  0  0  0
    1.7369   -7.4727   35.1450 O   0  0  0  0  0  0  0  0  0  0  0  0
   -0.3931   -8.1258   36.3584 O   0  0  0  0  0  0  0  0  0  0  0  0
   -0.8100   -6.8130   33.0191 N   0  0  0  0  0  0  0  0  0  0  0  0
   -1.5560   -7.9318   33.2481 C   0  0  0  0  0  0  0  0  0  0  0  0
   -1.8904   -8.4936   32.1045 N   0  0  0  0  0  0  0  0  0  0  0  0
   -1.3651   -7.7452   31.0848 N   0  0  0  0  0  0  0  0  0  0  0  0
   -0.7228   -6.7414   31.6332 C   0  0  0  0  0  0  0  0  0  0  0  0
   -0.0074   -5.6584   31.0666 C   0  0  0  0  0  0  0  0  0  0  0  0
    1.9896   -0.6244   28.2266 C   0  0  0  0  0  0  0  0  0  0  0  0
    0.9571    0.2372   28.1409 N   0  0  0  0  0  0  0  0  0  0  0  0
   -0.9149    1.5596   27.9311 H   0  0  0  0  0  0  0  0  0  0  0  0
   -1.9643    0.5739   28.7956 H   0  0  0  0  0  0  0  0  0  0  0  0
   -1.5613   -2.0078   28.2225 H   0  0  0  0  0  0  0  0  0  0  0  0
    0.3513   -3.5827   28.3756 H   0  0  0  0  0  0  0  0  0  0  0  0
    4.3311   -2.7307   30.4622 H   0  0  0  0  0  0  0  0  0  0  0  0
    3.3612   -4.3418   31.7519 H   0  0  0  0  0  0  0  0  0  0  0  0
    2.5907   -4.9284   30.2614 H   0  0  0  0  0  0  0  0  0  0  0  0
    0.8023   -3.0665   30.6660 H   0  0  0  0  0  0  0  0  0  0  0  0
    1.5343   -2.8473   32.1980 H   0  0  0  0  0  0  0  0  0  0  0  0
    0.9459   -4.0787   33.9015 H   0  0  0  0  0  0  0  0  0  0  0  0
    0.5136   -3.9510   35.8632 H   0  0  0  0  0  0  0  0  0  0  0  0
   -1.2397   -4.1482   36.0816 H   0  0  0  0  0  0  0  0  0  0  0  0
   -0.9290   -5.5923   37.9368 H   0  0  0  0  0  0  0  0  0  0  0  0
    0.2621   -4.3179   38.2256 H   0  0  0  0  0  0  0  0  0  0  0  0
    2.0355   -5.6412   37.1182 H   0  0  0  0  0  0  0  0  0  0  0  0
    3.4284   -7.5100   37.9344 H   0  0  0  0  0  0  0  0  0  0  0  0
    3.9608   -8.9523   39.8527 H   0  0  0  0  0  0  0  0  0  0  0  0
    2.2736   -9.3566   41.6241 H   0  0  0  0  0  0  0  0  0  0  0  0
    0.0373   -8.3052   41.4643 H   0  0  0  0  0  0  0  0  0  0  0  0
   -0.5199   -6.8541   39.5921 H   0  0  0  0  0  0  0  0  0  0  0  0
   -1.8239   -8.2883   34.2326 H   0  0  0  0  0  0  0  0  0  0  0  0
    0.0733   -5.6033   29.9860 H   0  0  0  0  0  0  0  0  0  0  0  0
    2.9719   -0.1609   28.2003 H   0  0  0  0  0  0  0  0  0  0  0  0
  1  2  1  0
  2  3  2  0
  3  4  1  0
  4  5  2  0
  5  6  1  0
  6  7  2  0
  6  8  2  0
  6  9  1  0
  9 10  1  0
 10 11  1  0
 11 12  1  0
 12 13  1  0
 13 14  2  0
 14 15  1  0
 15 16  1  0
 16 17  1  0
 17 18  1  0
 18 19  1  0
 19 20  2  0
 20 21  1  0
 21 22  2  0
 22 23  1  0
 23 24  2  0
 18 25  1  0
 25 26  2  0
 25 27  2  0
 14 28  1  0
 28 29  1  0
 29 30  2  0
 30 31  1  0
 31 32  2  0
 32 33  1  0
  5 34  1  0
 34 35  2  0
 35  2  1  0
 33 12  2  0
 25 15  1  0
 32 28  1  0
 24 19  1  0
  1 36  1  0
  1 37  1  0
  3 38  1  0
  4 39  1  0
  9 40  1  0
 10 41  1  0
 10 42  1  0
 11 43  1  0
 11 44  1  0
 13 45  1  0
 16 46  1  0
 16 47  1  0
 17 48  1  0
 17 49  1  0
 18 50  1  0
 20 51  1  0
 21 52  1  0
 22 53  1  0
 23 54  1  0
 24 55  1  0
 29 56  1  0
 33 57  1  0
 34 58  1  0
M  END
>  <Energy>  (459) 
-25.913979873986964

>  <compound_id>  (459) 
4133

>  <target_id>  (459) 
1

>  <reference_id>  (459) 
144

>  <inspiration_ids>  (459) 
[144, 180]

>  <energy_score>  (459) 
-238.30989130009522

>  <distance_score>  (459) 
1.0271965842245212

>  <path>  (459) 
/opt/xchem-fragalysis-2/maxwin/BulkDock/SCRATCH/505735/C4133-P144/C4133-P144.minimised.mol

>  <scratch_subdir>  (459) 
/opt/xchem-fragalysis-2/maxwin/BulkDock/SCRATCH/505735/C4133-P144

>  <fragmenstein_runtime>  (459) 
6.128221273422241

>  <fragmenstein_outcome>  (459) 
too moved

>  <fragmenstein_mode>  (459) 
expansion

>  <fragmenstein_error>  (459) 


$$$$
C4133-P180
     RDKit          3D

 58 62  0  0  0  0  0  0  0  0999 V2000
   -1.3453    0.5672   27.2349 N   0  0  0  0  0  0  0  0  0  0  0  0
   -0.4299   -0.3129   27.7972 C   0  0  0  0  0  0  0  0  0  0  0  0
   -0.8432   -1.5601   28.2540 C   0  0  0  0  0  0  0  0  0  0  0  0
    0.1132   -2.4568   28.6994 C   0  0  0  0  0  0  0  0  0  0  0  0
    1.4426   -2.0483   28.6803 C   0  0  0  0  0  0  0  0  0  0  0  0
    2.6935   -3.1077   29.2362 S   0  0  0  0  0  0  0  0  0  0  0  0
    2.3576   -4.4507   28.8174 O   0  0  0  0  0  0  0  0  0  0  0  0
    3.9922   -2.5373   28.9694 O   0  0  0  0  0  0  0  0  0  0  0  0
    2.4018   -2.9691   30.8832 N   0  0  0  0  0  0  0  0  0  0  0  0
    3.2995   -3.6897   31.7675 C   0  0  0  0  0  0  0  0  0  0  0  0
    2.9959   -5.1771   31.6981 C   0  0  0  0  0  0  0  0  0  0  0  0
    1.5587   -5.5586   31.8986 C   0  0  0  0  0  0  0  0  0  0  0  0
    1.0516   -5.3023   33.2351 C   0  0  0  0  0  0  0  0  0  0  0  0
    0.0040   -6.0163   33.6644 C   0  0  0  0  0  0  0  0  0  0  0  0
   -0.2810   -5.9422   35.0527 N   0  0  0  0  0  0  0  0  0  0  0  0
   -0.3244   -4.6701   35.8236 C   0  0  0  0  0  0  0  0  0  0  0  0
   -0.1359   -5.0489   37.2927 C   0  0  0  0  0  0  0  0  0  0  0  0
    0.9960   -6.0762   37.3044 C   0  0  0  0  0  0  0  0  0  0  0  0
    1.2463   -6.8951   38.5395 C   0  0  0  0  0  0  0  0  0  0  0  0
    2.4750   -7.5675   38.6728 C   0  0  0  0  0  0  0  0  0  0  0  0
    2.7255   -8.3897   39.7712 C   0  0  0  0  0  0  0  0  0  0  0  0
    1.7528   -8.5533   40.7516 C   0  0  0  0  0  0  0  0  0  0  0  0
    0.5386   -7.8826   40.6431 C   0  0  0  0  0  0  0  0  0  0  0  0
    0.2892   -7.0519   39.5502 C   0  0  0  0  0  0  0  0  0  0  0  0
    0.5531   -7.1781   35.9455 S   0  0  0  0  0  0  0  0  0  0  0  0
    1.7371   -7.5782   35.2051 O   0  0  0  0  0  0  0  0  0  0  0  0
   -0.4853   -8.1114   36.3028 O   0  0  0  0  0  0  0  0  0  0  0  0
   -0.6142   -6.9001   32.7833 N   0  0  0  0  0  0  0  0  0  0  0  0
   -1.5594   -7.8596   32.9641 C   0  0  0  0  0  0  0  0  0  0  0  0
   -1.8850   -8.3971   31.8077 N   0  0  0  0  0  0  0  0  0  0  0  0
   -1.0957   -7.8356   30.8382 N   0  0  0  0  0  0  0  0  0  0  0  0
   -0.2984   -6.9787   31.4360 C   0  0  0  0  0  0  0  0  0  0  0  0
    0.8492   -6.2724   30.9976 C   0  0  0  0  0  0  0  0  0  0  0  0
    1.7761   -0.7837   28.2571 C   0  0  0  0  0  0  0  0  0  0  0  0
    0.8515    0.0931   27.8306 N   0  0  0  0  0  0  0  0  0  0  0  0
   -2.0038    0.9032   27.9249 H   0  0  0  0  0  0  0  0  0  0  0  0
   -1.8554    0.0744   26.5025 H   0  0  0  0  0  0  0  0  0  0  0  0
   -1.8810   -1.8626   28.1721 H   0  0  0  0  0  0  0  0  0  0  0  0
   -0.1785   -3.4581   29.0002 H   0  0  0  0  0  0  0  0  0  0  0  0
    1.4148   -2.9703   31.1370 H   0  0  0  0  0  0  0  0  0  0  0  0
    3.1589   -3.3063   32.7840 H   0  0  0  0  0  0  0  0  0  0  0  0
    4.3458   -3.4954   31.5085 H   0  0  0  0  0  0  0  0  0  0  0  0
    3.5897   -5.6609   32.4830 H   0  0  0  0  0  0  0  0  0  0  0  0
    3.3569   -5.5705   30.7439 H   0  0  0  0  0  0  0  0  0  0  0  0
    1.6328   -4.6624   33.8874 H   0  0  0  0  0  0  0  0  0  0  0  0
    0.4608   -3.9723   35.5216 H   0  0  0  0  0  0  0  0  0  0  0  0
   -1.2937   -4.1836   35.6791 H   0  0  0  0  0  0  0  0  0  0  0  0
   -1.0759   -5.4793   37.6578 H   0  0  0  0  0  0  0  0  0  0  0  0
    0.0933   -4.1763   37.9124 H   0  0  0  0  0  0  0  0  0  0  0  0
    1.9256   -5.5731   37.0061 H   0  0  0  0  0  0  0  0  0  0  0  0
    3.2454   -7.4787   37.9090 H   0  0  0  0  0  0  0  0  0  0  0  0
    3.6692   -8.9224   39.8532 H   0  0  0  0  0  0  0  0  0  0  0  0
    1.9314   -9.2188   41.5924 H   0  0  0  0  0  0  0  0  0  0  0  0
   -0.2237   -8.0251   41.4053 H   0  0  0  0  0  0  0  0  0  0  0  0
   -0.6772   -6.5587   39.5068 H   0  0  0  0  0  0  0  0  0  0  0  0
   -1.9644   -8.1180   33.9318 H   0  0  0  0  0  0  0  0  0  0  0  0
    1.2296   -6.4916   30.0058 H   0  0  0  0  0  0  0  0  0  0  0  0
    2.7980   -0.4162   28.2410 H   0  0  0  0  0  0  0  0  0  0  0  0
  1  2  1  0
  2  3  2  0
  3  4  1  0
  4  5  2  0
  5  6  1  0
  6  7  2  0
  6  8  2  0
  6  9  1  0
  9 10  1  0
 10 11  1  0
 11 12  1  0
 12 13  1  0
 13 14  2  0
 14 15  1  0
 15 16  1  0
 16 17  1  0
 17 18  1  0
 18 19  1  0
 19 20  2  0
 20 21  1  0
 21 22  2  0
 22 23  1  0
 23 24  2  0
 18 25  1  0
 25 26  2  0
 25 27  2  0
 14 28  1  0
 28 29  1  0
 29 30  2  0
 30 31  1  0
 31 32  2  0
 32 33  1  0
  5 34  1  0
 34 35  2  0
 35  2  1  0
 33 12  2  0
 25 15  1  0
 32 28  1  0
 24 19  1  0
  1 36  1  0
  1 37  1  0
  3 38  1  0
  4 39  1  0
  9 40  1  0
 10 41  1  0
 10 42  1  0
 11 43  1  0
 11 44  1  0
 13 45  1  0
 16 46  1  0
 16 47  1  0
 17 48  1  0
 17 49  1  0
 18 50  1  0
 20 51  1  0
 21 52  1  0
 22 53  1  0
 23 54  1  0
 24 55  1  0
 29 56  1  0
 33 57  1  0
 34 58  1  0
M  END
>  <Energy>  (460) 
-10.444934116101367

>  <compound_id>  (460) 
4133

>  <target_id>  (460) 
1

>  <reference_id>  (460) 
180

>  <inspiration_ids>  (460) 
[144, 180]

>  <energy_score>  (460) 
-222.84084554220718

>  <distance_score>  (460) 
0.8253219794023245

>  <path>  (460) 
/opt/xchem-fragalysis-2/maxwin/BulkDock/SCRATCH/505735/C4133-P180/C4133-P180.minimised.mol

>  <scratch_subdir>  (460) 
/opt/xchem-fragalysis-2/maxwin/BulkDock/SCRATCH/505735/C4133-P180

>  <fragmenstein_runtime>  (460) 
5.985802412033081

>  <fragmenstein_outcome>  (460) 
acceptable

>  <fragmenstein_mode>  (460) 
expansion

>  <fragmenstein_error>  (460) 


$$$$
C4134-P144
     RDKit          3D

 49 52  0  0  0  0  0  0  0  0999 V2000
   -1.9970   -8.6324   32.3099 C   0  0  0  0  0  0  0  0  0  0  0  0
   -0.9274   -8.2606   31.3476 C   0  0  0  0  0  0  0  0  0  0  0  0
   -1.3801   -7.2919   30.4166 O   0  0  0  0  0  0  0  0  0  0  0  0
   -0.3195   -6.9755   29.6568 C   0  0  0  0  0  0  0  0  0  0  0  0
    0.4418   -7.8292   29.2224 O   0  0  0  0  0  0  0  0  0  0  0  0
   -0.1313   -5.5040   29.5062 C   0  0  0  0  0  0  0  0  0  0  0  0
    1.0158   -5.1307   30.0863 C   0  0  0  0  0  0  0  0  0  0  0  0
    0.9832   -4.7255   31.4926 C   0  0  0  0  0  0  0  0  0  0  0  0
    2.1123   -4.2892   32.0920 C   0  0  0  0  0  0  0  0  0  0  0  0
    2.2903   -4.3854   33.5382 C   0  0  0  0  0  0  0  0  0  0  0  0
    1.3413   -4.9991   34.2634 C   0  0  0  0  0  0  0  0  0  0  0  0
    1.6342   -5.1566   35.6351 N   0  0  0  0  0  0  0  0  0  0  0  0
    0.8572   -4.3387   36.6030 C   0  0  0  0  0  0  0  0  0  0  0  0
    1.1716   -4.9406   37.9596 C   0  0  0  0  0  0  0  0  0  0  0  0
    0.9925   -6.4401   37.7689 C   0  0  0  0  0  0  0  0  0  0  0  0
    1.4838   -7.2676   38.9151 C   0  0  0  0  0  0  0  0  0  0  0  0
    2.8306   -7.5386   39.1752 C   0  0  0  0  0  0  0  0  0  0  0  0
    3.1967   -8.3004   40.2856 C   0  0  0  0  0  0  0  0  0  0  0  0
    2.2269   -8.7726   41.1660 C   0  0  0  0  0  0  0  0  0  0  0  0
    0.8885   -8.4749   40.9459 C   0  0  0  0  0  0  0  0  0  0  0  0
    0.5245   -7.7224   39.8346 C   0  0  0  0  0  0  0  0  0  0  0  0
    1.7227   -6.8268   36.1739 S   0  0  0  0  0  0  0  0  0  0  0  0
    3.1290   -7.1501   36.1839 O   0  0  0  0  0  0  0  0  0  0  0  0
    0.8088   -7.6420   35.4045 O   0  0  0  0  0  0  0  0  0  0  0  0
    0.1553   -5.3568   33.6679 N   0  0  0  0  0  0  0  0  0  0  0  0
   -0.9622   -5.9566   34.1428 C   0  0  0  0  0  0  0  0  0  0  0  0
   -1.8243   -6.0743   33.1742 N   0  0  0  0  0  0  0  0  0  0  0  0
   -1.3480   -5.4094   32.0944 N   0  0  0  0  0  0  0  0  0  0  0  0
   -0.1000   -5.1116   32.3440 C   0  0  0  0  0  0  0  0  0  0  0  0
   -2.0819   -9.6915   32.1827 H   0  0  0  0  0  0  0  0  0  0  0  0
   -1.7120   -8.4871   33.3530 H   0  0  0  0  0  0  0  0  0  0  0  0
   -2.9560   -8.1724   32.0942 H   0  0  0  0  0  0  0  0  0  0  0  0
   -0.6552   -9.1591   30.7909 H   0  0  0  0  0  0  0  0  0  0  0  0
   -0.0743   -7.8698   31.9019 H   0  0  0  0  0  0  0  0  0  0  0  0
   -0.9797   -4.8786   29.7061 H   0  0  0  0  0  0  0  0  0  0  0  0
    1.9258   -5.6623   29.8193 H   0  0  0  0  0  0  0  0  0  0  0  0
    2.9993   -4.0309   31.5173 H   0  0  0  0  0  0  0  0  0  0  0  0
    3.2340   -4.0611   33.9667 H   0  0  0  0  0  0  0  0  0  0  0  0
   -0.2172   -4.3734   36.3976 H   0  0  0  0  0  0  0  0  0  0  0  0
    1.1885   -3.2961   36.5629 H   0  0  0  0  0  0  0  0  0  0  0  0
    2.2057   -4.7034   38.2412 H   0  0  0  0  0  0  0  0  0  0  0  0
    0.5160   -4.5427   38.7411 H   0  0  0  0  0  0  0  0  0  0  0  0
   -0.0785   -6.6381   37.6140 H   0  0  0  0  0  0  0  0  0  0  0  0
    3.6250   -7.1656   38.5333 H   0  0  0  0  0  0  0  0  0  0  0  0
    4.2463   -8.5173   40.4693 H   0  0  0  0  0  0  0  0  0  0  0  0
    2.5185   -9.3611   42.0317 H   0  0  0  0  0  0  0  0  0  0  0  0
    0.1283   -8.8307   41.6360 H   0  0  0  0  0  0  0  0  0  0  0  0
   -0.5267   -7.4892   39.6981 H   0  0  0  0  0  0  0  0  0  0  0  0
   -1.1224   -6.2867   35.1564 H   0  0  0  0  0  0  0  0  0  0  0  0
  1  2  1  0
  2  3  1  0
  3  4  1  0
  4  5  2  0
  4  6  1  0
  6  7  2  3
  7  8  1  0
  8  9  2  0
  9 10  1  0
 10 11  2  0
 11 12  1  0
 12 13  1  0
 13 14  1  0
 14 15  1  0
 15 16  1  0
 16 17  2  0
 17 18  1  0
 18 19  2  0
 19 20  1  0
 20 21  2  0
 15 22  1  0
 22 23  2  0
 22 24  2  0
 11 25  1  0
 25 26  1  0
 26 27  2  0
 27 28  1  0
 28 29  2  0
 29  8  1  0
 22 12  1  0
 29 25  1  0
 21 16  1  0
  1 30  1  0
  1 31  1  0
  1 32  1  0
  2 33  1  0
  2 34  1  0
  6 35  1  0
  7 36  1  0
  9 37  1  0
 10 38  1  0
 13 39  1  0
 13 40  1  0
 14 41  1  0
 14 42  1  0
 15 43  1  0
 17 44  1  0
 18 45  1  0
 19 46  1  0
 20 47  1  0
 21 48  1  0
 26 49  1  0
M  END
>  <Energy>  (461) 
125.33944918694549

>  <compound_id>  (461) 
4134

>  <target_id>  (461) 
1

>  <reference_id>  (461) 
144

>  <inspiration_ids>  (461) 
[144, 183]

>  <energy_score>  (461) 
5.2401340227791025

>  <distance_score>  (461) 
1.7978629200362692

>  <path>  (461) 
/opt/xchem-fragalysis-2/maxwin/BulkDock/SCRATCH/505735/C4134-P144/C4134-P144.minimised.mol

>  <scratch_subdir>  (461) 
/opt/xchem-fragalysis-2/maxwin/BulkDock/SCRATCH/505735/C4134-P144

>  <fragmenstein_runtime>  (461) 
3.982147455215454

>  <fragmenstein_outcome>  (461) 
too moved

>  <fragmenstein_mode>  (461) 
expansion

>  <fragmenstein_error>  (461) 


$$$$
C4134-P183
     RDKit          3D

 49 52  0  0  0  0  0  0  0  0999 V2000
   -2.3943  -11.6751   29.3056 C   0  0  0  0  0  0  0  0  0  0  0  0
   -1.3829  -10.5921   30.1371 C   0  0  0  0  0  0  0  0  0  0  0  0
   -0.8115   -9.6750   29.1816 O   0  0  0  0  0  0  0  0  0  0  0  0
   -0.1372   -8.5740   29.4484 C   0  0  0  0  0  0  0  0  0  0  0  0
    1.0785   -8.5261   29.3857 O   0  0  0  0  0  0  0  0  0  0  0  0
   -0.9671   -7.3831   29.7207 C   0  0  0  0  0  0  0  0  0  0  0  0
   -0.3091   -6.2825   30.1330 C   0  0  0  0  0  0  0  0  0  0  0  0
    0.1263   -6.2137   31.4981 C   0  0  0  0  0  0  0  0  0  0  0  0
    0.9263   -5.2252   31.9447 C   0  0  0  0  0  0  0  0  0  0  0  0
    1.1104   -4.9983   33.3719 C   0  0  0  0  0  0  0  0  0  0  0  0
    0.3757   -5.7156   34.2441 C   0  0  0  0  0  0  0  0  0  0  0  0
    0.5344   -5.4769   35.6299 N   0  0  0  0  0  0  0  0  0  0  0  0
    1.0010   -4.2198   36.2677 C   0  0  0  0  0  0  0  0  0  0  0  0
    1.7098   -4.6008   37.5848 C   0  0  0  0  0  0  0  0  0  0  0  0
    1.0788   -5.9138   38.0144 C   0  0  0  0  0  0  0  0  0  0  0  0
    1.6239   -6.7675   39.1110 C   0  0  0  0  0  0  0  0  0  0  0  0
    2.9862   -7.0202   39.2834 C   0  0  0  0  0  0  0  0  0  0  0  0
    3.4079   -7.9235   40.2599 C   0  0  0  0  0  0  0  0  0  0  0  0
    2.4785   -8.5746   41.0710 C   0  0  0  0  0  0  0  0  0  0  0  0
    1.1209   -8.3272   40.9118 C   0  0  0  0  0  0  0  0  0  0  0  0
    0.6978   -7.4301   39.9389 C   0  0  0  0  0  0  0  0  0  0  0  0
    1.0854   -6.8617   36.5099 S   0  0  0  0  0  0  0  0  0  0  0  0
    2.4166   -7.1581   36.0191 O   0  0  0  0  0  0  0  0  0  0  0  0
    0.0449   -7.8504   36.5662 O   0  0  0  0  0  0  0  0  0  0  0  0
   -0.4882   -6.6956   33.7608 N   0  0  0  0  0  0  0  0  0  0  0  0
   -1.4496   -7.4721   34.3332 C   0  0  0  0  0  0  0  0  0  0  0  0
   -1.9698   -8.2860   33.4473 N   0  0  0  0  0  0  0  0  0  0  0  0
   -1.4098   -8.0082   32.2557 N   0  0  0  0  0  0  0  0  0  0  0  0
   -0.5599   -7.0248   32.4392 C   0  0  0  0  0  0  0  0  0  0  0  0
   -2.2599  -12.7404   29.3863 H   0  0  0  0  0  0  0  0  0  0  0  0
   -3.4341  -11.6563   29.6009 H   0  0  0  0  0  0  0  0  0  0  0  0
   -2.3393  -11.5495   28.2279 H   0  0  0  0  0  0  0  0  0  0  0  0
   -0.6078  -11.1567   30.5954 H   0  0  0  0  0  0  0  0  0  0  0  0
   -1.7633   -9.9993   30.9703 H   0  0  0  0  0  0  0  0  0  0  0  0
   -1.7447   -7.2803   28.9729 H   0  0  0  0  0  0  0  0  0  0  0  0
   -0.5521   -5.3070   29.7135 H   0  0  0  0  0  0  0  0  0  0  0  0
    1.3965   -4.5199   31.2640 H   0  0  0  0  0  0  0  0  0  0  0  0
    1.8316   -4.2415   33.6510 H   0  0  0  0  0  0  0  0  0  0  0  0
    0.1192   -3.6078   36.4888 H   0  0  0  0  0  0  0  0  0  0  0  0
    1.6821   -3.6319   35.6505 H   0  0  0  0  0  0  0  0  0  0  0  0
    2.7834   -4.7201   37.3946 H   0  0  0  0  0  0  0  0  0  0  0  0
    1.6003   -3.8178   38.3419 H   0  0  0  0  0  0  0  0  0  0  0  0
    0.0198   -5.7088   38.2321 H   0  0  0  0  0  0  0  0  0  0  0  0
    3.7326   -6.5540   38.6447 H   0  0  0  0  0  0  0  0  0  0  0  0
    4.4684   -8.1303   40.3830 H   0  0  0  0  0  0  0  0  0  0  0  0
    2.8170   -9.2818   41.8235 H   0  0  0  0  0  0  0  0  0  0  0  0
    0.3929   -8.8466   41.5288 H   0  0  0  0  0  0  0  0  0  0  0  0
   -0.3725   -7.2804   39.8105 H   0  0  0  0  0  0  0  0  0  0  0  0
   -1.7534   -7.4131   35.3640 H   0  0  0  0  0  0  0  0  0  0  0  0
  1  2  1  0
  2  3  1  0
  3  4  1  0
  4  5  2  0
  4  6  1  0
  6  7  2  3
  7  8  1  0
  8  9  2  0
  9 10  1  0
 10 11  2  0
 11 12  1  0
 12 13  1  0
 13 14  1  0
 14 15  1  0
 15 16  1  0
 16 17  2  0
 17 18  1  0
 18 19  2  0
 19 20  1  0
 20 21  2  0
 15 22  1  0
 22 23  2  0
 22 24  2  0
 11 25  1  0
 25 26  1  0
 26 27  2  0
 27 28  1  0
 28 29  2  0
 29  8  1  0
 22 12  1  0
 29 25  1  0
 21 16  1  0
  1 30  1  0
  1 31  1  0
  1 32  1  0
  2 33  1  0
  2 34  1  0
  6 35  1  0
  7 36  1  0
  9 37  1  0
 10 38  1  0
 13 39  1  0
 13 40  1  0
 14 41  1  0
 14 42  1  0
 15 43  1  0
 17 44  1  0
 18 45  1  0
 19 46  1  0
 20 47  1  0
 21 48  1  0
 26 49  1  0
M  END
>  <Energy>  (462) 
132.73639094648303

>  <compound_id>  (462) 
4134

>  <target_id>  (462) 
1

>  <reference_id>  (462) 
183

>  <inspiration_ids>  (462) 
[144, 183]

>  <energy_score>  (462) 
12.637075782314696

>  <distance_score>  (462) 
1.3272700538441002

>  <path>  (462) 
/opt/xchem-fragalysis-2/maxwin/BulkDock/SCRATCH/505735/C4134-P183/C4134-P183.minimised.mol

>  <scratch_subdir>  (462) 
/opt/xchem-fragalysis-2/maxwin/BulkDock/SCRATCH/505735/C4134-P183

>  <fragmenstein_runtime>  (462) 
3.4227066040039062

>  <fragmenstein_outcome>  (462) 
too moved

>  <fragmenstein_mode>  (462) 
expansion

>  <fragmenstein_error>  (462) 


$$$$
C4134-P144
     RDKit          3D

 49 52  0  0  0  0  0  0  0  0999 V2000
   -0.9077    0.4605   28.1787 C   0  0  0  0  0  0  0  0  0  0  0  0
   -0.8957   -1.0466   28.2357 C   0  0  0  0  0  0  0  0  0  0  0  0
   -1.1616   -1.4355   29.5960 O   0  0  0  0  0  0  0  0  0  0  0  0
   -1.1962   -2.7376   29.9687 C   0  0  0  0  0  0  0  0  0  0  0  0
   -1.8174   -3.1008   30.9622 O   0  0  0  0  0  0  0  0  0  0  0  0
   -0.3574   -3.6594   29.1705 C   0  0  0  0  0  0  0  0  0  0  0  0
    0.2923   -4.7157   29.6834 C   0  0  0  0  0  0  0  0  0  0  0  0
    0.2768   -5.1480   31.0555 C   0  0  0  0  0  0  0  0  0  0  0  0
    0.8994   -4.3530   31.9478 C   0  0  0  0  0  0  0  0  0  0  0  0
    0.8022   -4.5762   33.3661 C   0  0  0  0  0  0  0  0  0  0  0  0
    0.0688   -5.6061   33.8196 C   0  0  0  0  0  0  0  0  0  0  0  0
   -0.0516   -5.7051   35.2273 N   0  0  0  0  0  0  0  0  0  0  0  0
   -0.1215   -4.5417   36.1427 C   0  0  0  0  0  0  0  0  0  0  0  0
    0.0835   -5.0903   37.5479 C   0  0  0  0  0  0  0  0  0  0  0  0
    1.1899   -6.1402   37.4120 C   0  0  0  0  0  0  0  0  0  0  0  0
    1.4357   -7.0547   38.5793 C   0  0  0  0  0  0  0  0  0  0  0  0
    2.6833   -7.6882   38.7008 C   0  0  0  0  0  0  0  0  0  0  0  0
    2.9565   -8.5249   39.7836 C   0  0  0  0  0  0  0  0  0  0  0  0
    1.9858   -8.7472   40.7558 C   0  0  0  0  0  0  0  0  0  0  0  0
    0.7418   -8.1355   40.6451 C   0  0  0  0  0  0  0  0  0  0  0  0
    0.4705   -7.2924   39.5682 C   0  0  0  0  0  0  0  0  0  0  0  0
    0.6816   -7.0729   35.9569 S   0  0  0  0  0  0  0  0  0  0  0  0
    1.8185   -7.4701   35.1454 O   0  0  0  0  0  0  0  0  0  0  0  0
   -0.4074   -7.9674   36.2536 O   0  0  0  0  0  0  0  0  0  0  0  0
   -0.5210   -6.4859   32.9032 N   0  0  0  0  0  0  0  0  0  0  0  0
   -1.2880   -7.6110   33.0489 C   0  0  0  0  0  0  0  0  0  0  0  0
   -1.5900   -8.1131   31.8693 N   0  0  0  0  0  0  0  0  0  0  0  0
   -1.0367   -7.2994   30.9094 N   0  0  0  0  0  0  0  0  0  0  0  0
   -0.4162   -6.3130   31.5279 C   0  0  0  0  0  0  0  0  0  0  0  0
   -0.8565    0.8164   27.1460 H   0  0  0  0  0  0  0  0  0  0  0  0
   -0.0497    0.8660   28.7263 H   0  0  0  0  0  0  0  0  0  0  0  0
   -1.7960    0.8720   28.6614 H   0  0  0  0  0  0  0  0  0  0  0  0
    0.0914   -1.3938   27.9174 H   0  0  0  0  0  0  0  0  0  0  0  0
   -1.6821   -1.4533   27.5943 H   0  0  0  0  0  0  0  0  0  0  0  0
   -0.2971   -3.4837   28.1075 H   0  0  0  0  0  0  0  0  0  0  0  0
    0.8851   -5.3433   29.0371 H   0  0  0  0  0  0  0  0  0  0  0  0
    1.4230   -3.4505   31.6392 H   0  0  0  0  0  0  0  0  0  0  0  0
    1.3156   -3.8582   33.9911 H   0  0  0  0  0  0  0  0  0  0  0  0
    0.6628   -3.8079   35.9416 H   0  0  0  0  0  0  0  0  0  0  0  0
   -1.0950   -4.0495   36.0597 H   0  0  0  0  0  0  0  0  0  0  0  0
    0.3463   -4.3021   38.2607 H   0  0  0  0  0  0  0  0  0  0  0  0
   -0.8623   -5.5345   37.8775 H   0  0  0  0  0  0  0  0  0  0  0  0
    2.1250   -5.6306   37.1429 H   0  0  0  0  0  0  0  0  0  0  0  0
    3.4576   -7.5387   37.9504 H   0  0  0  0  0  0  0  0  0  0  0  0
    3.9260   -9.0090   39.8647 H   0  0  0  0  0  0  0  0  0  0  0  0
    2.1939   -9.4046   41.5952 H   0  0  0  0  0  0  0  0  0  0  0  0
   -0.0238   -8.3210   41.3941 H   0  0  0  0  0  0  0  0  0  0  0  0
   -0.5165   -6.8414   39.5243 H   0  0  0  0  0  0  0  0  0  0  0  0
   -1.5861   -8.0213   34.0038 H   0  0  0  0  0  0  0  0  0  0  0  0
  1  2  1  0
  2  3  1  0
  3  4  1  0
  4  5  2  0
  4  6  1  0
  6  7  2  3
  7  8  1  0
  8  9  2  0
  9 10  1  0
 10 11  2  0
 11 12  1  0
 12 13  1  0
 13 14  1  0
 14 15  1  0
 15 16  1  0
 16 17  2  0
 17 18  1  0
 18 19  2  0
 19 20  1  0
 20 21  2  0
 15 22  1  0
 22 23  2  0
 22 24  2  0
 11 25  1  0
 25 26  1  0
 26 27  2  0
 27 28  1  0
 28 29  2  0
 29  8  1  0
 22 12  1  0
 29 25  1  0
 21 16  1  0
  1 30  1  0
  1 31  1  0
  1 32  1  0
  2 33  1  0
  2 34  1  0
  6 35  1  0
  7 36  1  0
  9 37  1  0
 10 38  1  0
 13 39  1  0
 13 40  1  0
 14 41  1  0
 14 42  1  0
 15 43  1  0
 17 44  1  0
 18 45  1  0
 19 46  1  0
 20 47  1  0
 21 48  1  0
 26 49  1  0
M  END
>  <Energy>  (463) 
73.733925988062794

>  <compound_id>  (463) 
4134

>  <target_id>  (463) 
1

>  <reference_id>  (463) 
144

>  <inspiration_ids>  (463) 
[144, 186]

>  <energy_score>  (463) 
-47.36703254997687

>  <distance_score>  (463) 
0.9056930639963716

>  <path>  (463) 
/opt/xchem-fragalysis-2/maxwin/BulkDock/SCRATCH/505735/C4134-P144/C4134-P144.minimised.mol

>  <scratch_subdir>  (463) 
/opt/xchem-fragalysis-2/maxwin/BulkDock/SCRATCH/505735/C4134-P144

>  <fragmenstein_runtime>  (463) 
4.348016977310181

>  <fragmenstein_outcome>  (463) 
acceptable

>  <fragmenstein_mode>  (463) 
expansion

>  <fragmenstein_error>  (463) 


$$$$
C4134-P186
     RDKit          3D

 49 52  0  0  0  0  0  0  0  0999 V2000
   -1.3864   -0.2187   28.6790 C   0  0  0  0  0  0  0  0  0  0  0  0
    0.1255   -0.3156   28.6935 C   0  0  0  0  0  0  0  0  0  0  0  0
    0.5535   -1.6524   28.4049 O   0  0  0  0  0  0  0  0  0  0  0  0
    0.3457   -2.5552   29.3942 C   0  0  0  0  0  0  0  0  0  0  0  0
   -0.1587   -2.3365   30.4819 O   0  0  0  0  0  0  0  0  0  0  0  0
    0.8898   -3.8480   28.9278 C   0  0  0  0  0  0  0  0  0  0  0  0
    0.9762   -4.9845   29.6375 C   0  0  0  0  0  0  0  0  0  0  0  0
    0.5909   -5.2498   31.0075 C   0  0  0  0  0  0  0  0  0  0  0  0
    1.0840   -4.4460   31.9765 C   0  0  0  0  0  0  0  0  0  0  0  0
    0.7807   -4.6202   33.3787 C   0  0  0  0  0  0  0  0  0  0  0  0
    0.0432   -5.6775   33.7436 C   0  0  0  0  0  0  0  0  0  0  0  0
   -0.1605   -5.8825   35.1281 N   0  0  0  0  0  0  0  0  0  0  0  0
   -0.3845   -4.8323   36.1356 C   0  0  0  0  0  0  0  0  0  0  0  0
    0.8986   -4.7331   36.9569 C   0  0  0  0  0  0  0  0  0  0  0  0
    1.5327   -6.1272   37.0810 C   0  0  0  0  0  0  0  0  0  0  0  0
    1.4597   -6.8398   38.4047 C   0  0  0  0  0  0  0  0  0  0  0  0
    2.5203   -7.6868   38.7731 C   0  0  0  0  0  0  0  0  0  0  0  0
    2.4721   -8.4181   39.9586 C   0  0  0  0  0  0  0  0  0  0  0  0
    1.3639   -8.3155   40.7924 C   0  0  0  0  0  0  0  0  0  0  0  0
    0.3103   -7.4730   40.4479 C   0  0  0  0  0  0  0  0  0  0  0  0
    0.3570   -6.7356   39.2633 C   0  0  0  0  0  0  0  0  0  0  0  0
    0.7627   -7.1533   35.8054 S   0  0  0  0  0  0  0  0  0  0  0  0
    1.7594   -7.6014   34.8485 O   0  0  0  0  0  0  0  0  0  0  0  0
   -0.2341   -8.0511   36.3351 O   0  0  0  0  0  0  0  0  0  0  0  0
   -0.4330   -6.5537   32.7668 N   0  0  0  0  0  0  0  0  0  0  0  0
   -1.1973   -7.6839   32.8555 C   0  0  0  0  0  0  0  0  0  0  0  0
   -1.4223   -8.1794   31.6581 N   0  0  0  0  0  0  0  0  0  0  0  0
   -0.7855   -7.3663   30.7459 N   0  0  0  0  0  0  0  0  0  0  0  0
   -0.1998   -6.3850   31.4100 C   0  0  0  0  0  0  0  0  0  0  0  0
   -1.7008    0.8283   28.6865 H   0  0  0  0  0  0  0  0  0  0  0  0
   -1.8208   -0.6960   29.5619 H   0  0  0  0  0  0  0  0  0  0  0  0
   -1.8054   -0.7291   27.8078 H   0  0  0  0  0  0  0  0  0  0  0  0
    0.5430    0.0232   29.6487 H   0  0  0  0  0  0  0  0  0  0  0  0
    0.5453    0.3255   27.9125 H   0  0  0  0  0  0  0  0  0  0  0  0
    1.2254   -3.8505   27.8945 H   0  0  0  0  0  0  0  0  0  0  0  0
    1.3802   -5.8590   29.1329 H   0  0  0  0  0  0  0  0  0  0  0  0
    1.7295   -3.6019   31.7415 H   0  0  0  0  0  0  0  0  0  0  0  0
    1.2008   -3.8977   34.0667 H   0  0  0  0  0  0  0  0  0  0  0  0
   -0.6458   -3.8689   35.6877 H   0  0  0  0  0  0  0  0  0  0  0  0
   -1.2246   -5.1358   36.7700 H   0  0  0  0  0  0  0  0  0  0  0  0
    1.6026   -4.0883   36.4146 H   0  0  0  0  0  0  0  0  0  0  0  0
    0.7266   -4.2442   37.9213 H   0  0  0  0  0  0  0  0  0  0  0  0
    2.5869   -6.0248   36.7912 H   0  0  0  0  0  0  0  0  0  0  0  0
    3.3883   -7.8093   38.1283 H   0  0  0  0  0  0  0  0  0  0  0  0
    3.2831   -9.0923   40.2208 H   0  0  0  0  0  0  0  0  0  0  0  0
    1.3097   -8.9121   41.6995 H   0  0  0  0  0  0  0  0  0  0  0  0
   -0.5593   -7.4080   41.0970 H   0  0  0  0  0  0  0  0  0  0  0  0
   -0.4966   -6.1097   39.0170 H   0  0  0  0  0  0  0  0  0  0  0  0
   -1.5543   -8.0841   33.7933 H   0  0  0  0  0  0  0  0  0  0  0  0
  1  2  1  0
  2  3  1  0
  3  4  1  0
  4  5  2  0
  4  6  1  0
  6  7  2  3
  7  8  1  0
  8  9  2  0
  9 10  1  0
 10 11  2  0
 11 12  1  0
 12 13  1  0
 13 14  1  0
 14 15  1  0
 15 16  1  0
 16 17  2  0
 17 18  1  0
 18 19  2  0
 19 20  1  0
 20 21  2  0
 15 22  1  0
 22 23  2  0
 22 24  2  0
 11 25  1  0
 25 26  1  0
 26 27  2  0
 27 28  1  0
 28 29  2  0
 29  8  1  0
 22 12  1  0
 29 25  1  0
 21 16  1  0
  1 30  1  0
  1 31  1  0
  1 32  1  0
  2 33  1  0
  2 34  1  0
  6 35  1  0
  7 36  1  0
  9 37  1  0
 10 38  1  0
 13 39  1  0
 13 40  1  0
 14 41  1  0
 14 42  1  0
 15 43  1  0
 17 44  1  0
 18 45  1  0
 19 46  1  0
 20 47  1  0
 21 48  1  0
 26 49  1  0
M  END
>  <Energy>  (464) 
61.642592001788685

>  <compound_id>  (464) 
4134

>  <target_id>  (464) 
1

>  <reference_id>  (464) 
186

>  <inspiration_ids>  (464) 
[144, 186]

>  <energy_score>  (464) 
-59.45836653624988

>  <distance_score>  (464) 
1.2323083194633084

>  <path>  (464) 
/opt/xchem-fragalysis-2/maxwin/BulkDock/SCRATCH/505735/C4134-P186/C4134-P186.minimised.mol

>  <scratch_subdir>  (464) 
/opt/xchem-fragalysis-2/maxwin/BulkDock/SCRATCH/505735/C4134-P186

>  <fragmenstein_runtime>  (464) 
5.0001232624053955

>  <fragmenstein_outcome>  (464) 
too moved

>  <fragmenstein_mode>  (464) 
expansion

>  <fragmenstein_error>  (464) 


$$$$
C1623-P144
     RDKit          3D

 64 69  0  0  0  0  0  0  0  0999 V2000
   -1.3531   -0.8378   28.9239 C   0  0  0  0  0  0  0  0  0  0  0  0
   -0.0235   -1.0221   29.5948 C   0  0  0  0  0  0  0  0  0  0  0  0
   -0.1035   -2.0880   31.0129 S   0  0  0  0  0  0  0  0  0  0  0  0
   -0.6339   -1.3496   32.1370 O   0  0  0  0  0  0  0  0  0  0  0  0
   -0.5171   -3.4858   30.5759 N   0  0  0  0  0  0  0  0  0  0  0  0
   -0.3546   -4.6674   31.4133 C   0  0  0  0  0  0  0  0  0  0  0  0
   -0.1844   -4.6652   32.8621 C   0  0  0  0  0  0  0  0  0  0  0  0
   -0.3512   -5.8056   33.5538 C   0  0  0  0  0  0  0  0  0  0  0  0
    0.0661   -5.7240   34.9076 N   0  0  0  0  0  0  0  0  0  0  0  0
   -0.4070   -4.7602   35.9080 C   0  0  0  0  0  0  0  0  0  0  0  0
    0.7330   -4.6861   36.9360 C   0  0  0  0  0  0  0  0  0  0  0  0
    1.4833   -6.0388   36.9857 C   0  0  0  0  0  0  0  0  0  0  0  0
    1.4932   -6.7958   38.2895 C   0  0  0  0  0  0  0  0  0  0  0  0
    2.6490   -7.5049   38.6604 C   0  0  0  0  0  0  0  0  0  0  0  0
    2.6898   -8.2378   39.8477 C   0  0  0  0  0  0  0  0  0  0  0  0
    1.5747   -8.2784   40.6790 C   0  0  0  0  0  0  0  0  0  0  0  0
    0.4205   -7.5856   40.3242 C   0  0  0  0  0  0  0  0  0  0  0  0
    0.3788   -6.8479   39.1391 C   0  0  0  0  0  0  0  0  0  0  0  0
    0.7562   -7.0600   35.6898 S   0  0  0  0  0  0  0  0  0  0  0  0
    1.7641   -7.6203   34.8098 O   0  0  0  0  0  0  0  0  0  0  0  0
   -0.3556   -7.8276   36.1930 O   0  0  0  0  0  0  0  0  0  0  0  0
   -0.7648   -6.9390   32.8505 N   0  0  0  0  0  0  0  0  0  0  0  0
   -1.3524   -8.1081   33.2242 C   0  0  0  0  0  0  0  0  0  0  0  0
   -1.6371   -8.8306   32.1616 N   0  0  0  0  0  0  0  0  0  0  0  0
   -1.2404   -8.1458   31.0523 N   0  0  0  0  0  0  0  0  0  0  0  0
   -0.7720   -6.9955   31.4643 C   0  0  0  0  0  0  0  0  0  0  0  0
   -0.4536   -5.8286   30.7457 C   0  0  0  0  0  0  0  0  0  0  0  0
    1.4933   -2.3520   31.4843 N   0  0  0  0  0  0  0  0  0  0  0  0
    2.4345   -3.0035   30.5928 C   0  0  0  0  0  0  0  0  0  0  0  0
    3.7554   -3.2520   31.2949 C   0  0  0  0  0  0  0  0  0  0  0  0
    4.9734   -2.9658   30.6360 C   0  0  0  0  0  0  0  0  0  0  0  0
    6.2038   -3.2304   31.2481 C   0  0  0  0  0  0  0  0  0  0  0  0
    6.1895   -3.7876   32.5079 C   0  0  0  0  0  0  0  0  0  0  0  0
    5.0144   -4.0762   33.1570 C   0  0  0  0  0  0  0  0  0  0  0  0
    3.7880   -3.8235   32.5815 C   0  0  0  0  0  0  0  0  0  0  0  0
    5.2172   -4.6301   34.3822 O   0  0  0  0  0  0  0  0  0  0  0  0
    6.6604   -4.6759   34.4203 C   0  0  0  0  0  0  0  0  0  0  0  0
    7.2830   -4.1201   33.2433 O   0  0  0  0  0  0  0  0  0  0  0  0
   -1.2576   -0.1777   28.0562 H   0  0  0  0  0  0  0  0  0  0  0  0
   -2.0555   -0.3784   29.6238 H   0  0  0  0  0  0  0  0  0  0  0  0
   -1.7516   -1.7945   28.5774 H   0  0  0  0  0  0  0  0  0  0  0  0
    0.6803   -1.4603   28.8814 H   0  0  0  0  0  0  0  0  0  0  0  0
    0.3779   -0.0608   29.9304 H   0  0  0  0  0  0  0  0  0  0  0  0
    0.1532   -3.7507   33.3323 H   0  0  0  0  0  0  0  0  0  0  0  0
   -1.3275   -5.1294   36.3718 H   0  0  0  0  0  0  0  0  0  0  0  0
   -0.6043   -3.7693   35.4914 H   0  0  0  0  0  0  0  0  0  0  0  0
    1.4460   -3.9213   36.5983 H   0  0  0  0  0  0  0  0  0  0  0  0
    0.3689   -4.3437   37.9097 H   0  0  0  0  0  0  0  0  0  0  0  0
    2.5173   -5.8476   36.6688 H   0  0  0  0  0  0  0  0  0  0  0  0
    3.5304   -7.5029   38.0217 H   0  0  0  0  0  0  0  0  0  0  0  0
    3.5884   -8.7854   40.1186 H   0  0  0  0  0  0  0  0  0  0  0  0
    1.5981   -8.8582   41.5974 H   0  0  0  0  0  0  0  0  0  0  0  0
   -0.4568   -7.6304   40.9646 H   0  0  0  0  0  0  0  0  0  0  0  0
   -0.5497   -6.3426   38.8820 H   0  0  0  0  0  0  0  0  0  0  0  0
   -1.5868   -8.3776   34.2423 H   0  0  0  0  0  0  0  0  0  0  0  0
   -0.5366   -5.8495   29.6650 H   0  0  0  0  0  0  0  0  0  0  0  0
    1.8638   -1.4655   31.8066 H   0  0  0  0  0  0  0  0  0  0  0  0
    2.6055   -2.3695   29.7160 H   0  0  0  0  0  0  0  0  0  0  0  0
    2.0769   -3.9718   30.2291 H   0  0  0  0  0  0  0  0  0  0  0  0
    4.9691   -2.5373   29.6353 H   0  0  0  0  0  0  0  0  0  0  0  0
    7.1409   -3.0128   30.7475 H   0  0  0  0  0  0  0  0  0  0  0  0
    2.8779   -4.0763   33.1144 H   0  0  0  0  0  0  0  0  0  0  0  0
    7.0047   -4.1152   35.2968 H   0  0  0  0  0  0  0  0  0  0  0  0
    6.9752   -5.7208   34.5245 H   0  0  0  0  0  0  0  0  0  0  0  0
  1  2  1  0
  2  3  1  0
  3  4  2  0
  3  5  2  0
  5  6  1  0
  6  7  1  0
  7  8  2  0
  8  9  1  0
  9 10  1  0
 10 11  1  0
 11 12  1  0
 12 13  1  0
 13 14  2  0
 14 15  1  0
 15 16  2  0
 16 17  1  0
 17 18  2  0
 12 19  1  0
 19 20  2  0
 19 21  2  0
  8 22  1  0
 22 23  1  0
 23 24  2  0
 24 25  1  0
 25 26  2  0
 26 27  1  0
  3 28  1  0
 28 29  1  0
 29 30  1  0
 30 31  2  0
 31 32  1  0
 32 33  2  0
 33 34  1  0
 34 35  2  0
 34 36  1  0
 36 37  1  0
 37 38  1  0
 27  6  2  0
 35 30  1  0
 19  9  1  0
 26 22  1  0
 38 33  1  0
 18 13  1  0
  1 39  1  0
  1 40  1  0
  1 41  1  0
  2 42  1  0
  2 43  1  0
  7 44  1  0
 10 45  1  0
 10 46  1  0
 11 47  1  0
 11 48  1  0
 12 49  1  0
 14 50  1  0
 15 51  1  0
 16 52  1  0
 17 53  1  0
 18 54  1  0
 23 55  1  0
 27 56  1  0
 28 57  1  0
 29 58  1  0
 29 59  1  0
 31 60  1  0
 32 61  1  0
 35 62  1  0
 37 63  1  0
 37 64  1  0
M  END
>  <Energy>  (465) 
-35.396979566004759

>  <compound_id>  (465) 
1623

>  <target_id>  (465) 
1

>  <reference_id>  (465) 
144

>  <inspiration_ids>  (465) 
[144, 187]

>  <energy_score>  (465) 
-92.55092034368244

>  <distance_score>  (465) 
0.9529071293244896

>  <path>  (465) 
/opt/xchem-fragalysis-2/maxwin/BulkDock/SCRATCH/505735/C1623-P144/C1623-P144.minimised.mol

>  <scratch_subdir>  (465) 
/opt/xchem-fragalysis-2/maxwin/BulkDock/SCRATCH/505735/C1623-P144

>  <fragmenstein_runtime>  (465) 
7.900680780410767

>  <fragmenstein_outcome>  (465) 
acceptable

>  <fragmenstein_mode>  (465) 
expansion

>  <fragmenstein_error>  (465) 


$$$$
C1623-P187
     RDKit          3D

 64 69  0  0  0  0  0  0  0  0999 V2000
   -1.4197   -1.1725   28.5999 C   0  0  0  0  0  0  0  0  0  0  0  0
   -1.4543   -0.8029   30.0673 C   0  0  0  0  0  0  0  0  0  0  0  0
   -0.4751   -1.8815   31.0837 S   0  0  0  0  0  0  0  0  0  0  0  0
   -0.4481   -1.3143   32.4146 O   0  0  0  0  0  0  0  0  0  0  0  0
   -0.8078   -3.3176   30.7211 N   0  0  0  0  0  0  0  0  0  0  0  0
   -0.3718   -4.4756   31.4763 C   0  0  0  0  0  0  0  0  0  0  0  0
   -0.2398   -4.5130   32.9219 C   0  0  0  0  0  0  0  0  0  0  0  0
   -0.3072   -5.6886   33.5697 C   0  0  0  0  0  0  0  0  0  0  0  0
   -0.1429   -5.6335   34.9901 N   0  0  0  0  0  0  0  0  0  0  0  0
   -0.0426   -4.3908   35.7933 C   0  0  0  0  0  0  0  0  0  0  0  0
    0.1550   -4.8296   37.2415 C   0  0  0  0  0  0  0  0  0  0  0  0
    1.1793   -5.9628   37.1797 C   0  0  0  0  0  0  0  0  0  0  0  0
    1.3744   -6.8295   38.3980 C   0  0  0  0  0  0  0  0  0  0  0  0
    2.5617   -7.5711   38.5260 C   0  0  0  0  0  0  0  0  0  0  0  0
    2.7767   -8.3978   39.6303 C   0  0  0  0  0  0  0  0  0  0  0  0
    1.8064   -8.5027   40.6217 C   0  0  0  0  0  0  0  0  0  0  0  0
    0.6238   -7.7786   40.5106 C   0  0  0  0  0  0  0  0  0  0  0  0
    0.4115   -6.9443   39.4112 C   0  0  0  0  0  0  0  0  0  0  0  0
    0.5958   -6.9575   35.7932 S   0  0  0  0  0  0  0  0  0  0  0  0
    1.7142   -7.4241   34.9950 O   0  0  0  0  0  0  0  0  0  0  0  0
   -0.4911   -7.8089   36.2027 O   0  0  0  0  0  0  0  0  0  0  0  0
   -0.5905   -6.8215   32.7953 N   0  0  0  0  0  0  0  0  0  0  0  0
   -1.1501   -8.0235   33.0909 C   0  0  0  0  0  0  0  0  0  0  0  0
   -1.3381   -8.7283   31.9950 N   0  0  0  0  0  0  0  0  0  0  0  0
   -0.9175   -7.9879   30.9307 N   0  0  0  0  0  0  0  0  0  0  0  0
   -0.5290   -6.8296   31.4081 C   0  0  0  0  0  0  0  0  0  0  0  0
   -0.3079   -5.6040   30.7517 C   0  0  0  0  0  0  0  0  0  0  0  0
    1.1015   -1.6884   30.5586 N   0  0  0  0  0  0  0  0  0  0  0  0
    2.1475   -2.6778   30.6531 C   0  0  0  0  0  0  0  0  0  0  0  0
    2.6901   -2.9284   32.0479 C   0  0  0  0  0  0  0  0  0  0  0  0
    2.7581   -1.9231   33.0433 C   0  0  0  0  0  0  0  0  0  0  0  0
    3.3105   -2.1797   34.3050 C   0  0  0  0  0  0  0  0  0  0  0  0
    3.8155   -3.4369   34.5405 C   0  0  0  0  0  0  0  0  0  0  0  0
    3.7783   -4.4151   33.5794 C   0  0  0  0  0  0  0  0  0  0  0  0
    3.2222   -4.1954   32.3367 C   0  0  0  0  0  0  0  0  0  0  0  0
    4.3501   -5.5735   33.9988 O   0  0  0  0  0  0  0  0  0  0  0  0
    4.8149   -5.1905   35.3080 C   0  0  0  0  0  0  0  0  0  0  0  0
    4.3953   -3.8642   35.6933 O   0  0  0  0  0  0  0  0  0  0  0  0
   -2.0070   -0.4602   28.0134 H   0  0  0  0  0  0  0  0  0  0  0  0
   -1.8325   -2.1689   28.4320 H   0  0  0  0  0  0  0  0  0  0  0  0
   -0.3972   -1.1628   28.2102 H   0  0  0  0  0  0  0  0  0  0  0  0
   -1.0710    0.2125   30.2121 H   0  0  0  0  0  0  0  0  0  0  0  0
   -2.4731   -0.8320   30.4612 H   0  0  0  0  0  0  0  0  0  0  0  0
   -0.0780   -3.5670   33.4171 H   0  0  0  0  0  0  0  0  0  0  0  0
   -0.9554   -3.7938   35.7039 H   0  0  0  0  0  0  0  0  0  0  0  0
    0.8168   -3.7956   35.4691 H   0  0  0  0  0  0  0  0  0  0  0  0
    0.4920   -4.0039   37.8761 H   0  0  0  0  0  0  0  0  0  0  0  0
   -0.8117   -5.1744   37.6266 H   0  0  0  0  0  0  0  0  0  0  0  0
    2.1444   -5.5392   36.8759 H   0  0  0  0  0  0  0  0  0  0  0  0
    3.3288   -7.5263   37.7559 H   0  0  0  0  0  0  0  0  0  0  0  0
    3.6954   -8.9726   39.7086 H   0  0  0  0  0  0  0  0  0  0  0  0
    1.9651   -9.1566   41.4743 H   0  0  0  0  0  0  0  0  0  0  0  0
   -0.1416   -7.8699   41.2769 H   0  0  0  0  0  0  0  0  0  0  0  0
   -0.5322   -6.4081   39.3643 H   0  0  0  0  0  0  0  0  0  0  0  0
   -1.4495   -8.3079   34.0851 H   0  0  0  0  0  0  0  0  0  0  0  0
   -0.4019   -5.5726   29.6740 H   0  0  0  0  0  0  0  0  0  0  0  0
    1.4243   -0.7988   30.9140 H   0  0  0  0  0  0  0  0  0  0  0  0
    2.9948   -2.3163   30.0561 H   0  0  0  0  0  0  0  0  0  0  0  0
    1.8472   -3.6133   30.1713 H   0  0  0  0  0  0  0  0  0  0  0  0
    2.3756   -0.9226   32.8543 H   0  0  0  0  0  0  0  0  0  0  0  0
    3.3521   -1.4077   35.0655 H   0  0  0  0  0  0  0  0  0  0  0  0
    3.2041   -4.9874   31.5990 H   0  0  0  0  0  0  0  0  0  0  0  0
    4.4304   -5.9080   36.0404 H   0  0  0  0  0  0  0  0  0  0  0  0
    5.9106   -5.2313   35.3202 H   0  0  0  0  0  0  0  0  0  0  0  0
  1  2  1  0
  2  3  1  0
  3  4  2  0
  3  5  2  0
  5  6  1  0
  6  7  1  0
  7  8  2  0
  8  9  1  0
  9 10  1  0
 10 11  1  0
 11 12  1  0
 12 13  1  0
 13 14  2  0
 14 15  1  0
 15 16  2  0
 16 17  1  0
 17 18  2  0
 12 19  1  0
 19 20  2  0
 19 21  2  0
  8 22  1  0
 22 23  1  0
 23 24  2  0
 24 25  1  0
 25 26  2  0
 26 27  1  0
  3 28  1  0
 28 29  1  0
 29 30  1  0
 30 31  2  0
 31 32  1  0
 32 33  2  0
 33 34  1  0
 34 35  2  0
 34 36  1  0
 36 37  1  0
 37 38  1  0
 27  6  2  0
 35 30  1  0
 19  9  1  0
 26 22  1  0
 38 33  1  0
 18 13  1  0
  1 39  1  0
  1 40  1  0
  1 41  1  0
  2 42  1  0
  2 43  1  0
  7 44  1  0
 10 45  1  0
 10 46  1  0
 11 47  1  0
 11 48  1  0
 12 49  1  0
 14 50  1  0
 15 51  1  0
 16 52  1  0
 17 53  1  0
 18 54  1  0
 23 55  1  0
 27 56  1  0
 28 57  1  0
 29 58  1  0
 29 59  1  0
 31 60  1  0
 32 61  1  0
 35 62  1  0
 37 63  1  0
 37 64  1  0
M  END
>  <Energy>  (466) 
-40.149810203810368

>  <compound_id>  (466) 
1623

>  <target_id>  (466) 
1

>  <reference_id>  (466) 
187

>  <inspiration_ids>  (466) 
[144, 187]

>  <energy_score>  (466) 
-97.30375098149229

>  <distance_score>  (466) 
0.965516292982979

>  <path>  (466) 
/opt/xchem-fragalysis-2/maxwin/BulkDock/SCRATCH/505735/C1623-P187/C1623-P187.minimised.mol

>  <scratch_subdir>  (466) 
/opt/xchem-fragalysis-2/maxwin/BulkDock/SCRATCH/505735/C1623-P187

>  <fragmenstein_runtime>  (466) 
6.924455165863037

>  <fragmenstein_outcome>  (466) 
acceptable

>  <fragmenstein_mode>  (466) 
expansion

>  <fragmenstein_error>  (466) 


$$$$
C4108-P144
     RDKit          3D

 66 71  0  0  0  0  0  0  0  0999 V2000
    2.7434   -2.5419   34.1120 N   0  0  0  0  0  0  0  0  0  0  0  0
    2.2965   -3.9152   34.3395 C   0  0  0  0  0  0  0  0  0  0  0  0
    0.8223   -4.0607   34.8228 C   0  0  0  0  0  0  0  0  0  0  0  0
   -0.3033   -3.4242   33.8155 C   0  0  0  0  0  0  0  0  0  0  0  0
    0.1323   -3.5428   32.2838 C   0  0  0  0  0  0  0  0  0  0  0  0
   -0.6829   -2.7070   31.2314 C   0  0  0  0  0  0  0  0  0  0  0  0
   -0.0821   -2.7581   29.7959 C   0  0  0  0  0  0  0  0  0  0  0  0
    0.2034   -1.3503   29.2679 C   0  0  0  0  0  0  0  0  0  0  0  0
    0.6230   -1.1971   27.8818 N   0  0  0  0  0  0  0  0  0  0  0  0
    0.4706    0.2526   27.6354 C   0  0  0  0  0  0  0  0  0  0  0  0
   -0.6415    0.7455   28.5529 C   0  0  0  0  0  0  0  0  0  0  0  0
   -1.0502   -0.5004   29.3172 C   0  0  0  0  0  0  0  0  0  0  0  0
   -1.5185   -0.2992   30.7501 C   0  0  0  0  0  0  0  0  0  0  0  0
   -0.8147   -1.2551   31.7411 C   0  0  0  0  0  0  0  0  0  0  0  0
   -1.5200   -1.3622   33.0812 C   0  0  0  0  0  0  0  0  0  0  0  0
   -1.8376   -0.0680   33.6760 N   0  0  0  0  0  0  0  0  0  0  0  0
   -2.1237   -0.4028   35.0600 N   0  0  0  0  0  0  0  0  0  0  0  0
   -1.4295   -1.6793   35.2988 C   0  0  0  0  0  0  0  0  0  0  0  0
   -0.6657   -1.9832   34.0873 N   0  0  0  0  0  0  0  0  0  0  0  0
    0.6703   -3.5147   36.2717 C   0  0  0  0  0  0  0  0  0  0  0  0
    1.2927   -4.4672   37.2725 C   0  0  0  0  0  0  0  0  0  0  0  0
    0.5987   -5.7911   36.9982 C   0  0  0  0  0  0  0  0  0  0  0  0
    1.1520   -6.8844   37.8756 C   0  0  0  0  0  0  0  0  0  0  0  0
    2.4412   -7.4141   37.7668 C   0  0  0  0  0  0  0  0  0  0  0  0
    2.9409   -8.2792   38.7496 C   0  0  0  0  0  0  0  0  0  0  0  0
    2.1648   -8.6249   39.8548 C   0  0  0  0  0  0  0  0  0  0  0  0
    0.8834   -8.1075   39.9827 C   0  0  0  0  0  0  0  0  0  0  0  0
    0.3915   -7.2388   39.0096 C   0  0  0  0  0  0  0  0  0  0  0  0
    0.6054   -5.9714   35.2078 S   0  0  0  0  0  0  0  0  0  0  0  0
    1.7837   -6.7071   34.7738 O   0  0  0  0  0  0  0  0  0  0  0  0
   -0.7075   -6.4467   34.8192 O   0  0  0  0  0  0  0  0  0  0  0  0
    2.6567   -1.9728   34.9524 H   0  0  0  0  0  0  0  0  0  0  0  0
    3.7309   -2.5313   33.8557 H   0  0  0  0  0  0  0  0  0  0  0  0
    2.4411   -4.4864   33.4154 H   0  0  0  0  0  0  0  0  0  0  0  0
    2.9872   -4.3651   35.0605 H   0  0  0  0  0  0  0  0  0  0  0  0
   -1.2106   -4.0196   33.9202 H   0  0  0  0  0  0  0  0  0  0  0  0
    0.1067   -4.6016   31.9976 H   0  0  0  0  0  0  0  0  0  0  0  0
    1.1668   -3.2093   32.1697 H   0  0  0  0  0  0  0  0  0  0  0  0
   -1.6841   -3.1568   31.1728 H   0  0  0  0  0  0  0  0  0  0  0  0
    0.8376   -3.3547   29.7788 H   0  0  0  0  0  0  0  0  0  0  0  0
   -0.7907   -3.2723   29.1343 H   0  0  0  0  0  0  0  0  0  0  0  0
    1.0053   -0.9170   29.8832 H   0  0  0  0  0  0  0  0  0  0  0  0
   -0.0562   -1.6674   27.2752 H   0  0  0  0  0  0  0  0  0  0  0  0
    1.4128    0.7672   27.8543 H   0  0  0  0  0  0  0  0  0  0  0  0
    0.2108    0.4626   26.6019 H   0  0  0  0  0  0  0  0  0  0  0  0
   -1.4800    1.1767   27.9987 H   0  0  0  0  0  0  0  0  0  0  0  0
   -0.2325    1.5083   29.2221 H   0  0  0  0  0  0  0  0  0  0  0  0
   -1.8380   -1.0032   28.7455 H   0  0  0  0  0  0  0  0  0  0  0  0
   -2.5999   -0.4474   30.8052 H   0  0  0  0  0  0  0  0  0  0  0  0
   -1.3423    0.7336   31.0709 H   0  0  0  0  0  0  0  0  0  0  0  0
    0.1931   -0.8466   31.9146 H   0  0  0  0  0  0  0  0  0  0  0  0
   -2.4610   -1.9222   32.9563 H   0  0  0  0  0  0  0  0  0  0  0  0
   -0.9649    0.4695   33.6519 H   0  0  0  0  0  0  0  0  0  0  0  0
   -3.1259   -0.5566   35.1939 H   0  0  0  0  0  0  0  0  0  0  0  0
   -2.1687   -2.4534   35.5328 H   0  0  0  0  0  0  0  0  0  0  0  0
   -0.7905   -1.4991   36.1629 H   0  0  0  0  0  0  0  0  0  0  0  0
    1.1034   -2.5174   36.3874 H   0  0  0  0  0  0  0  0  0  0  0  0
   -0.3884   -3.4794   36.5430 H   0  0  0  0  0  0  0  0  0  0  0  0
    2.3785   -4.5287   37.1459 H   0  0  0  0  0  0  0  0  0  0  0  0
    1.1067   -4.1271   38.2980 H   0  0  0  0  0  0  0  0  0  0  0  0
   -0.4708   -5.6744   37.2297 H   0  0  0  0  0  0  0  0  0  0  0  0
    3.0888   -7.1463   36.9352 H   0  0  0  0  0  0  0  0  0  0  0  0
    3.9458   -8.6819   38.6492 H   0  0  0  0  0  0  0  0  0  0  0  0
    2.5586   -9.2987   40.6096 H   0  0  0  0  0  0  0  0  0  0  0  0
    0.2692   -8.3725   40.8386 H   0  0  0  0  0  0  0  0  0  0  0  0
   -0.5965   -6.8093   39.1644 H   0  0  0  0  0  0  0  0  0  0  0  0
  1  2  1  0
  2  3  1  0
  3  4  1  0
  4  5  1  0
  5  6  1  0
  6  7  1  0
  7  8  1  0
  8  9  1  0
  9 10  1  0
 10 11  1  0
 11 12  1  0
 12 13  1  0
 13 14  1  0
 14 15  1  0
 15 16  1  0
 16 17  1  0
 17 18  1  0
 18 19  1  0
  3 20  1  0
 20 21  1  0
 21 22  1  0
 22 23  1  0
 23 24  2  0
 24 25  1  0
 25 26  2  0
 26 27  1  0
 27 28  2  0
 22 29  1  0
 29 30  2  0
 29 31  2  0
 29  3  1  0
 19  4  1  0
 28 23  1  0
 14  6  1  0
 19 15  1  0
 12  8  1  0
  1 32  1  0
  1 33  1  0
  2 34  1  0
  2 35  1  0
  4 36  1  0
  5 37  1  0
  5 38  1  0
  6 39  1  0
  7 40  1  0
  7 41  1  0
  8 42  1  0
  9 43  1  0
 10 44  1  0
 10 45  1  0
 11 46  1  0
 11 47  1  0
 12 48  1  0
 13 49  1  0
 13 50  1  0
 14 51  1  0
 15 52  1  0
 16 53  1  0
 17 54  1  0
 18 55  1  0
 18 56  1  0
 20 57  1  0
 20 58  1  0
 21 59  1  0
 21 60  1  0
 22 61  1  0
 24 62  1  0
 25 63  1  0
 26 64  1  0
 27 65  1  0
 28 66  1  0
M  END
>  <Energy>  (467) 
123.75798594981774

>  <compound_id>  (467) 
4108

>  <target_id>  (467) 
1

>  <reference_id>  (467) 
144

>  <inspiration_ids>  (467) 
[144, 189]

>  <energy_score>  (467) 
-80.3548752244692

>  <distance_score>  (467) 
1.855180483314827

>  <path>  (467) 
/opt/xchem-fragalysis-2/maxwin/BulkDock/SCRATCH/505735/C4108-P144/C4108-P144.minimised.mol

>  <scratch_subdir>  (467) 
/opt/xchem-fragalysis-2/maxwin/BulkDock/SCRATCH/505735/C4108-P144

>  <fragmenstein_runtime>  (467) 
24.323856115341187

>  <fragmenstein_outcome>  (467) 
too moved

>  <fragmenstein_mode>  (467) 
expansion

>  <fragmenstein_error>  (467) 


$$$$
C4108-P189
     RDKit          3D

 66 71  0  0  0  0  0  0  0  0999 V2000
    3.1643   -2.8285   33.7434 N   0  0  0  0  0  0  0  0  0  0  0  0
    2.5254   -4.1045   34.0761 C   0  0  0  0  0  0  0  0  0  0  0  0
    1.1780   -3.9950   34.8444 C   0  0  0  0  0  0  0  0  0  0  0  0
    0.0620   -3.0762   34.0773 C   0  0  0  0  0  0  0  0  0  0  0  0
   -0.0956   -3.4544   32.5391 C   0  0  0  0  0  0  0  0  0  0  0  0
   -0.8811   -2.4247   31.6383 C   0  0  0  0  0  0  0  0  0  0  0  0
   -0.9461   -2.8257   30.1451 C   0  0  0  0  0  0  0  0  0  0  0  0
   -0.9838   -1.6203   29.2025 C   0  0  0  0  0  0  0  0  0  0  0  0
   -1.6758   -1.8037   27.9503 N   0  0  0  0  0  0  0  0  0  0  0  0
   -2.3154   -0.5443   27.5570 C   0  0  0  0  0  0  0  0  0  0  0  0
   -1.8813    0.4706   28.5988 C   0  0  0  0  0  0  0  0  0  0  0  0
   -1.6920   -0.4314   29.8018 C   0  0  0  0  0  0  0  0  0  0  0  0
   -0.9277    0.1199   30.9743 C   0  0  0  0  0  0  0  0  0  0  0  0
   -0.2984   -1.0073   31.8381 C   0  0  0  0  0  0  0  0  0  0  0  0
   -0.4648   -0.7344   33.3259 C   0  0  0  0  0  0  0  0  0  0  0  0
   -0.0556    0.6125   33.7160 N   0  0  0  0  0  0  0  0  0  0  0  0
    0.1568    0.5174   35.1428 N   0  0  0  0  0  0  0  0  0  0  0  0
    0.2288   -0.9166   35.4393 C   0  0  0  0  0  0  0  0  0  0  0  0
    0.3800   -1.5955   34.1498 N   0  0  0  0  0  0  0  0  0  0  0  0
    1.4195   -3.4506   36.2853 C   0  0  0  0  0  0  0  0  0  0  0  0
    1.8608   -4.5467   37.2270 C   0  0  0  0  0  0  0  0  0  0  0  0
    0.8136   -5.6257   37.0538 C   0  0  0  0  0  0  0  0  0  0  0  0
    1.1228   -6.8236   37.9121 C   0  0  0  0  0  0  0  0  0  0  0  0
    2.3253   -7.5384   37.8395 C   0  0  0  0  0  0  0  0  0  0  0  0
    2.6467   -8.4916   38.8116 C   0  0  0  0  0  0  0  0  0  0  0  0
    1.7677   -8.7560   39.8592 C   0  0  0  0  0  0  0  0  0  0  0  0
    0.5674   -8.0628   39.9446 C   0  0  0  0  0  0  0  0  0  0  0  0
    0.2561   -7.0975   38.9877 C   0  0  0  0  0  0  0  0  0  0  0  0
    0.6738   -5.8281   35.2782 S   0  0  0  0  0  0  0  0  0  0  0  0
    1.7019   -6.7483   34.8133 O   0  0  0  0  0  0  0  0  0  0  0  0
   -0.7160   -6.1042   34.9793 O   0  0  0  0  0  0  0  0  0  0  0  0
    2.4468   -2.1370   33.4930 H   0  0  0  0  0  0  0  0  0  0  0  0
    3.6256   -2.4320   34.5619 H   0  0  0  0  0  0  0  0  0  0  0  0
    2.3804   -4.6696   33.1492 H   0  0  0  0  0  0  0  0  0  0  0  0
    3.2535   -4.6861   34.6530 H   0  0  0  0  0  0  0  0  0  0  0  0
   -0.9105   -3.2453   34.5577 H   0  0  0  0  0  0  0  0  0  0  0  0
   -0.5844   -4.4337   32.4698 H   0  0  0  0  0  0  0  0  0  0  0  0
    0.8937   -3.5619   32.0841 H   0  0  0  0  0  0  0  0  0  0  0  0
   -1.9204   -2.4220   32.0002 H   0  0  0  0  0  0  0  0  0  0  0  0
   -0.0972   -3.4650   29.8734 H   0  0  0  0  0  0  0  0  0  0  0  0
   -1.8390   -3.4413   30.0071 H   0  0  0  0  0  0  0  0  0  0  0  0
    0.0563   -1.3483   28.9713 H   0  0  0  0  0  0  0  0  0  0  0  0
   -2.3254   -2.5944   27.9047 H   0  0  0  0  0  0  0  0  0  0  0  0
   -2.0377   -0.2168   26.5555 H   0  0  0  0  0  0  0  0  0  0  0  0
   -3.4010   -0.6731   27.5759 H   0  0  0  0  0  0  0  0  0  0  0  0
   -2.6213    1.2541   28.7651 H   0  0  0  0  0  0  0  0  0  0  0  0
   -0.9358    0.9440   28.3072 H   0  0  0  0  0  0  0  0  0  0  0  0
   -2.6705   -0.7407   30.1806 H   0  0  0  0  0  0  0  0  0  0  0  0
   -1.6104    0.7408   31.5656 H   0  0  0  0  0  0  0  0  0  0  0  0
   -0.1264    0.7902   30.6377 H   0  0  0  0  0  0  0  0  0  0  0  0
    0.7720   -1.0383   31.5833 H   0  0  0  0  0  0  0  0  0  0  0  0
   -1.5262   -0.8525   33.5985 H   0  0  0  0  0  0  0  0  0  0  0  0
    0.8467    0.7892   33.2619 H   0  0  0  0  0  0  0  0  0  0  0  0
   -0.6173    0.9285   35.6681 H   0  0  0  0  0  0  0  0  0  0  0  0
   -0.6860   -1.2281   35.9589 H   0  0  0  0  0  0  0  0  0  0  0  0
    1.0862   -1.0263   36.0980 H   0  0  0  0  0  0  0  0  0  0  0  0
    2.1823   -2.6685   36.3031 H   0  0  0  0  0  0  0  0  0  0  0  0
    0.4850   -3.0569   36.6991 H   0  0  0  0  0  0  0  0  0  0  0  0
    2.8680   -4.8907   36.9651 H   0  0  0  0  0  0  0  0  0  0  0  0
    1.8987   -4.1822   38.2601 H   0  0  0  0  0  0  0  0  0  0  0  0
   -0.1643   -5.2192   37.3502 H   0  0  0  0  0  0  0  0  0  0  0  0
    3.0432   -7.3486   37.0449 H   0  0  0  0  0  0  0  0  0  0  0  0
    3.5797   -9.0448   38.7425 H   0  0  0  0  0  0  0  0  0  0  0  0
    2.0029   -9.5259   40.5899 H   0  0  0  0  0  0  0  0  0  0  0  0
   -0.1216   -8.2784   40.7567 H   0  0  0  0  0  0  0  0  0  0  0  0
   -0.6657   -6.5330   39.1130 H   0  0  0  0  0  0  0  0  0  0  0  0
  1  2  1  0
  2  3  1  0
  3  4  1  0
  4  5  1  0
  5  6  1  0
  6  7  1  0
  7  8  1  0
  8  9  1  0
  9 10  1  0
 10 11  1  0
 11 12  1  0
 12 13  1  0
 13 14  1  0
 14 15  1  0
 15 16  1  0
 16 17  1  0
 17 18  1  0
 18 19  1  0
  3 20  1  0
 20 21  1  0
 21 22  1  0
 22 23  1  0
 23 24  2  0
 24 25  1  0
 25 26  2  0
 26 27  1  0
 27 28  2  0
 22 29  1  0
 29 30  2  0
 29 31  2  0
 29  3  1  0
 19  4  1  0
 28 23  1  0
 14  6  1  0
 19 15  1  0
 12  8  1  0
  1 32  1  0
  1 33  1  0
  2 34  1  0
  2 35  1  0
  4 36  1  0
  5 37  1  0
  5 38  1  0
  6 39  1  0
  7 40  1  0
  7 41  1  0
  8 42  1  0
  9 43  1  0
 10 44  1  0
 10 45  1  0
 11 46  1  0
 11 47  1  0
 12 48  1  0
 13 49  1  0
 13 50  1  0
 14 51  1  0
 15 52  1  0
 16 53  1  0
 17 54  1  0
 18 55  1  0
 18 56  1  0
 20 57  1  0
 20 58  1  0
 21 59  1  0
 21 60  1  0
 22 61  1  0
 24 62  1  0
 25 63  1  0
 26 64  1  0
 27 65  1  0
 28 66  1  0
M  END
>  <Energy>  (468) 
120.47783653029599

>  <compound_id>  (468) 
4108

>  <target_id>  (468) 
1

>  <reference_id>  (468) 
189

>  <inspiration_ids>  (468) 
[144, 189]

>  <energy_score>  (468) 
-83.63502464399264

>  <distance_score>  (468) 
1.9111783549512689

>  <path>  (468) 
/opt/xchem-fragalysis-2/maxwin/BulkDock/SCRATCH/505735/C4108-P189/C4108-P189.minimised.mol

>  <scratch_subdir>  (468) 
/opt/xchem-fragalysis-2/maxwin/BulkDock/SCRATCH/505735/C4108-P189

>  <fragmenstein_runtime>  (468) 
24.835490942001343

>  <fragmenstein_outcome>  (468) 
too moved

>  <fragmenstein_mode>  (468) 
expansion

>  <fragmenstein_error>  (468) 


$$$$
C4135-P144
     RDKit          3D

 67 71  0  0  0  0  0  0  0  0999 V2000
    6.2092   -2.4715   28.6903 C   0  0  0  0  0  0  0  0  0  0  0  0
    4.8652   -2.6319   28.2385 O   0  0  0  0  0  0  0  0  0  0  0  0
    4.3016   -3.8261   28.5741 C   0  0  0  0  0  0  0  0  0  0  0  0
    4.8930   -4.7536   29.1189 O   0  0  0  0  0  0  0  0  0  0  0  0
    2.8618   -3.9280   28.0946 C   0  0  0  0  0  0  0  0  0  0  0  0
    2.1409   -2.6866   28.1461 N   0  0  0  0  0  0  0  0  0  0  0  0
    1.9010   -1.7805   29.2267 C   0  0  0  0  0  0  0  0  0  0  0  0
    2.1817   -1.8609   30.4351 N   0  0  0  0  0  0  0  0  0  0  0  0
    1.8284   -0.8668   31.4416 C   0  0  0  0  0  0  0  0  0  0  0  0
    0.3728   -1.0298   31.8954 C   0  0  0  0  0  0  0  0  0  0  0  0
    0.2479   -2.0522   32.9241 N   0  0  0  0  0  0  0  0  0  0  0  0
    0.1207   -3.4199   32.7726 C   0  0  0  0  0  0  0  0  0  0  0  0
    0.2099   -4.1646   34.0321 C   0  0  0  0  0  0  0  0  0  0  0  0
   -0.0644   -5.4773   34.0673 C   0  0  0  0  0  0  0  0  0  0  0  0
   -0.0557   -6.1257   35.3337 N   0  0  0  0  0  0  0  0  0  0  0  0
   -0.6872   -5.5187   36.5319 C   0  0  0  0  0  0  0  0  0  0  0  0
    0.0448   -6.0385   37.7728 C   0  0  0  0  0  0  0  0  0  0  0  0
    0.8133   -7.3031   37.3663 C   0  0  0  0  0  0  0  0  0  0  0  0
    1.8159   -7.7333   38.4089 C   0  0  0  0  0  0  0  0  0  0  0  0
    3.2061   -7.6160   38.3071 C   0  0  0  0  0  0  0  0  0  0  0  0
    4.0355   -8.0300   39.3552 C   0  0  0  0  0  0  0  0  0  0  0  0
    3.4927   -8.5652   40.5205 C   0  0  0  0  0  0  0  0  0  0  0  0
    2.1158   -8.6938   40.6416 C   0  0  0  0  0  0  0  0  0  0  0  0
    1.2895   -8.2845   39.5960 C   0  0  0  0  0  0  0  0  0  0  0  0
    1.4533   -6.8427   35.7617 S   0  0  0  0  0  0  0  0  0  0  0  0
    2.4183   -5.7701   35.8699 O   0  0  0  0  0  0  0  0  0  0  0  0
    1.6718   -7.9707   34.8838 O   0  0  0  0  0  0  0  0  0  0  0  0
   -0.3801   -6.1323   32.8848 N   0  0  0  0  0  0  0  0  0  0  0  0
   -0.8031   -7.4070   32.6295 C   0  0  0  0  0  0  0  0  0  0  0  0
   -0.9600   -7.5803   31.3344 N   0  0  0  0  0  0  0  0  0  0  0  0
   -0.6435   -6.3904   30.7148 N   0  0  0  0  0  0  0  0  0  0  0  0
   -0.3600   -5.5068   31.6511 C   0  0  0  0  0  0  0  0  0  0  0  0
   -0.1167   -4.1008   31.6255 C   0  0  0  0  0  0  0  0  0  0  0  0
    1.1327   -0.6284   28.6954 C   0  0  0  0  0  0  0  0  0  0  0  0
   -0.1217   -0.6559   28.0261 C   0  0  0  0  0  0  0  0  0  0  0  0
   -0.3480    0.6480   27.6651 C   0  0  0  0  0  0  0  0  0  0  0  0
   -1.3915    1.3426   26.8947 C   0  0  0  0  0  0  0  0  0  0  0  0
    0.6651    1.4216   28.1299 O   0  0  0  0  0  0  0  0  0  0  0  0
    1.5989    0.6285   28.7638 N   0  0  0  0  0  0  0  0  0  0  0  0
    6.5390   -1.4640   28.4225 H   0  0  0  0  0  0  0  0  0  0  0  0
    6.2655   -2.5760   29.7785 H   0  0  0  0  0  0  0  0  0  0  0  0
    6.8658   -3.1945   28.1965 H   0  0  0  0  0  0  0  0  0  0  0  0
    2.8797   -4.3091   27.0695 H   0  0  0  0  0  0  0  0  0  0  0  0
    2.3501   -4.6567   28.7315 H   0  0  0  0  0  0  0  0  0  0  0  0
    1.8454   -2.2479   27.2794 H   0  0  0  0  0  0  0  0  0  0  0  0
    2.0131    0.1556   31.1021 H   0  0  0  0  0  0  0  0  0  0  0  0
    2.5026   -1.0019   32.2966 H   0  0  0  0  0  0  0  0  0  0  0  0
    0.0482   -0.0843   32.3452 H   0  0  0  0  0  0  0  0  0  0  0  0
   -0.3118   -1.2290   31.0654 H   0  0  0  0  0  0  0  0  0  0  0  0
    0.7242   -1.7849   33.7831 H   0  0  0  0  0  0  0  0  0  0  0  0
    0.4935   -3.6122   34.9198 H   0  0  0  0  0  0  0  0  0  0  0  0
   -1.7214   -5.8537   36.5406 H   0  0  0  0  0  0  0  0  0  0  0  0
   -0.6942   -4.4265   36.5328 H   0  0  0  0  0  0  0  0  0  0  0  0
    0.7448   -5.2656   38.1186 H   0  0  0  0  0  0  0  0  0  0  0  0
   -0.6520   -6.2180   38.5981 H   0  0  0  0  0  0  0  0  0  0  0  0
    0.1209   -8.1327   37.1726 H   0  0  0  0  0  0  0  0  0  0  0  0
    3.6916   -7.1999   37.4282 H   0  0  0  0  0  0  0  0  0  0  0  0
    5.1143   -7.9279   39.2592 H   0  0  0  0  0  0  0  0  0  0  0  0
    4.1453   -8.8806   41.3301 H   0  0  0  0  0  0  0  0  0  0  0  0
    1.6821   -9.1161   41.5439 H   0  0  0  0  0  0  0  0  0  0  0  0
    0.2142   -8.4184   39.7089 H   0  0  0  0  0  0  0  0  0  0  0  0
   -0.9736   -8.1427   33.4031 H   0  0  0  0  0  0  0  0  0  0  0  0
   -0.1851   -3.5954   30.6702 H   0  0  0  0  0  0  0  0  0  0  0  0
   -0.7437   -1.5110   27.8025 H   0  0  0  0  0  0  0  0  0  0  0  0
   -1.9817    1.9815   27.5522 H   0  0  0  0  0  0  0  0  0  0  0  0
   -0.9431    1.9777   26.1245 H   0  0  0  0  0  0  0  0  0  0  0  0
   -2.0567    0.6312   26.3983 H   0  0  0  0  0  0  0  0  0  0  0  0
  1  2  1  0
  2  3  1  0
  3  4  2  0
  3  5  1  0
  5  6  1  0
  6  7  1  0
  7  8  2  3
  8  9  1  0
  9 10  1  0
 10 11  1  0
 11 12  1  0
 12 13  1  0
 13 14  2  0
 14 15  1  0
 15 16  1  0
 16 17  1  0
 17 18  1  0
 18 19  1  0
 19 20  2  0
 20 21  1  0
 21 22  2  0
 22 23  1  0
 23 24  2  0
 18 25  1  0
 25 26  2  0
 25 27  2  0
 14 28  1  0
 28 29  1  0
 29 30  2  0
 30 31  1  0
 31 32  2  0
 32 33  1  0
  7 34  1  0
 34 35  1  0
 35 36  2  0
 36 37  1  0
 36 38  1  0
 38 39  1  0
 33 12  2  0
 39 34  2  0
 25 15  1  0
 32 28  1  0
 24 19  1  0
  1 40  1  0
  1 41  1  0
  1 42  1  0
  5 43  1  0
  5 44  1  0
  6 45  1  0
  9 46  1  0
  9 47  1  0
 10 48  1  0
 10 49  1  0
 11 50  1  0
 13 51  1  0
 16 52  1  0
 16 53  1  0
 17 54  1  0
 17 55  1  0
 18 56  1  0
 20 57  1  0
 21 58  1  0
 22 59  1  0
 23 60  1  0
 24 61  1  0
 29 62  1  0
 33 63  1  0
 35 64  1  0
 37 65  1  0
 37 66  1  0
 37 67  1  0
M  END
>  <Energy>  (469) 
117.5591517610999

>  <compound_id>  (469) 
4135

>  <target_id>  (469) 
1

>  <reference_id>  (469) 
144

>  <inspiration_ids>  (469) 
[144, 195]

>  <energy_score>  (469) 
-61.30989938739452

>  <distance_score>  (469) 
2.233023148462195

>  <path>  (469) 
/opt/xchem-fragalysis-2/maxwin/BulkDock/SCRATCH/505735/C4135-P144/C4135-P144.minimised.mol

>  <scratch_subdir>  (469) 
/opt/xchem-fragalysis-2/maxwin/BulkDock/SCRATCH/505735/C4135-P144

>  <fragmenstein_runtime>  (469) 
19.452312231063843

>  <fragmenstein_outcome>  (469) 
too moved

>  <fragmenstein_mode>  (469) 
expansion

>  <fragmenstein_error>  (469) 


$$$$
C4135-P195
     RDKit          3D

 67 71  0  0  0  0  0  0  0  0999 V2000
    5.3268    1.0210   25.3529 C   0  0  0  0  0  0  0  0  0  0  0  0
    4.3588    0.5370   26.2845 O   0  0  0  0  0  0  0  0  0  0  0  0
    4.7577   -0.5527   27.0004 C   0  0  0  0  0  0  0  0  0  0  0  0
    5.8728   -1.0601   26.9441 O   0  0  0  0  0  0  0  0  0  0  0  0
    3.6329   -1.1002   27.8792 C   0  0  0  0  0  0  0  0  0  0  0  0
    2.4320   -0.3185   27.7632 N   0  0  0  0  0  0  0  0  0  0  0  0
    1.0978   -0.5554   28.2399 C   0  0  0  0  0  0  0  0  0  0  0  0
    0.5934   -1.5378   28.8136 N   0  0  0  0  0  0  0  0  0  0  0  0
    1.2345   -2.7839   29.1507 C   0  0  0  0  0  0  0  0  0  0  0  0
    1.8706   -2.7093   30.5380 C   0  0  0  0  0  0  0  0  0  0  0  0
    2.4512   -4.0014   30.9621 N   0  0  0  0  0  0  0  0  0  0  0  0
    1.5992   -4.9891   31.4426 C   0  0  0  0  0  0  0  0  0  0  0  0
    1.4829   -5.1269   32.8928 C   0  0  0  0  0  0  0  0  0  0  0  0
    0.6048   -6.0021   33.4152 C   0  0  0  0  0  0  0  0  0  0  0  0
    0.5383   -5.9527   34.8309 N   0  0  0  0  0  0  0  0  0  0  0  0
   -0.7007   -5.8329   35.6095 C   0  0  0  0  0  0  0  0  0  0  0  0
   -0.2686   -5.9403   37.0701 C   0  0  0  0  0  0  0  0  0  0  0  0
    0.7103   -7.1230   37.1291 C   0  0  0  0  0  0  0  0  0  0  0  0
    1.4915   -7.2932   38.4148 C   0  0  0  0  0  0  0  0  0  0  0  0
    2.6940   -8.0177   38.4597 C   0  0  0  0  0  0  0  0  0  0  0  0
    3.3573   -8.2470   39.6683 C   0  0  0  0  0  0  0  0  0  0  0  0
    2.8216   -7.7744   40.8611 C   0  0  0  0  0  0  0  0  0  0  0  0
    1.6215   -7.0735   40.8459 C   0  0  0  0  0  0  0  0  0  0  0  0
    0.9613   -6.8402   39.6372 C   0  0  0  0  0  0  0  0  0  0  0  0
    1.7601   -6.8023   35.6858 S   0  0  0  0  0  0  0  0  0  0  0  0
    2.8002   -5.8410   35.9767 O   0  0  0  0  0  0  0  0  0  0  0  0
    2.0554   -8.0210   34.9598 O   0  0  0  0  0  0  0  0  0  0  0  0
   -0.1620   -6.7922   32.5583 N   0  0  0  0  0  0  0  0  0  0  0  0
   -1.1005   -7.7614   32.7672 C   0  0  0  0  0  0  0  0  0  0  0  0
   -1.5656   -8.2085   31.6201 N   0  0  0  0  0  0  0  0  0  0  0  0
   -0.8996   -7.5558   30.6147 N   0  0  0  0  0  0  0  0  0  0  0  0
   -0.0578   -6.7157   31.1775 C   0  0  0  0  0  0  0  0  0  0  0  0
    0.8609   -5.7818   30.6367 C   0  0  0  0  0  0  0  0  0  0  0  0
    0.2062    0.5537   27.9001 C   0  0  0  0  0  0  0  0  0  0  0  0
   -1.2001    0.5236   27.7198 C   0  0  0  0  0  0  0  0  0  0  0  0
   -1.5081    1.7740   27.2483 C   0  0  0  0  0  0  0  0  0  0  0  0
   -2.7281    2.4185   26.7368 C   0  0  0  0  0  0  0  0  0  0  0  0
   -0.3821    2.5334   27.2234 O   0  0  0  0  0  0  0  0  0  0  0  0
    0.7003    1.7720   27.6173 N   0  0  0  0  0  0  0  0  0  0  0  0
    4.8757    1.8442   24.7922 H   0  0  0  0  0  0  0  0  0  0  0  0
    6.2058    1.4006   25.8826 H   0  0  0  0  0  0  0  0  0  0  0  0
    5.6097    0.2343   24.6464 H   0  0  0  0  0  0  0  0  0  0  0  0
    3.4654   -2.1204   27.5306 H   0  0  0  0  0  0  0  0  0  0  0  0
    3.9879   -1.0934   28.9121 H   0  0  0  0  0  0  0  0  0  0  0  0
    2.4526    0.5773   27.2666 H   0  0  0  0  0  0  0  0  0  0  0  0
    1.9418   -3.1295   28.3953 H   0  0  0  0  0  0  0  0  0  0  0  0
    0.4419   -3.5381   29.1490 H   0  0  0  0  0  0  0  0  0  0  0  0
    2.6699   -1.9617   30.5404 H   0  0  0  0  0  0  0  0  0  0  0  0
    1.1354   -2.3703   31.2794 H   0  0  0  0  0  0  0  0  0  0  0  0
    3.1704   -3.7971   31.6593 H   0  0  0  0  0  0  0  0  0  0  0  0
    2.0798   -4.4758   33.5251 H   0  0  0  0  0  0  0  0  0  0  0  0
   -1.4097   -6.6265   35.3661 H   0  0  0  0  0  0  0  0  0  0  0  0
   -1.1695   -4.8622   35.4280 H   0  0  0  0  0  0  0  0  0  0  0  0
    0.2341   -5.0115   37.3721 H   0  0  0  0  0  0  0  0  0  0  0  0
   -1.1303   -6.0718   37.7265 H   0  0  0  0  0  0  0  0  0  0  0  0
    0.1687   -8.0523   36.9185 H   0  0  0  0  0  0  0  0  0  0  0  0
    3.1382   -8.4321   37.5576 H   0  0  0  0  0  0  0  0  0  0  0  0
    4.2916   -8.8027   39.6757 H   0  0  0  0  0  0  0  0  0  0  0  0
    3.3366   -7.9554   41.8005 H   0  0  0  0  0  0  0  0  0  0  0  0
    1.1933   -6.7108   41.7771 H   0  0  0  0  0  0  0  0  0  0  0  0
    0.0140   -6.3082   39.6816 H   0  0  0  0  0  0  0  0  0  0  0  0
   -1.3972   -8.1101   33.7428 H   0  0  0  0  0  0  0  0  0  0  0  0
    0.9370   -5.7054   29.5608 H   0  0  0  0  0  0  0  0  0  0  0  0
   -1.8577   -0.3276   27.8211 H   0  0  0  0  0  0  0  0  0  0  0  0
   -2.6361    2.5979   25.6609 H   0  0  0  0  0  0  0  0  0  0  0  0
   -3.6106    1.7968   26.8960 H   0  0  0  0  0  0  0  0  0  0  0  0
   -2.8859    3.3816   27.2282 H   0  0  0  0  0  0  0  0  0  0  0  0
  1  2  1  0
  2  3  1  0
  3  4  2  0
  3  5  1  0
  5  6  1  0
  6  7  1  0
  7  8  2  3
  8  9  1  0
  9 10  1  0
 10 11  1  0
 11 12  1  0
 12 13  1  0
 13 14  2  0
 14 15  1  0
 15 16  1  0
 16 17  1  0
 17 18  1  0
 18 19  1  0
 19 20  2  0
 20 21  1  0
 21 22  2  0
 22 23  1  0
 23 24  2  0
 18 25  1  0
 25 26  2  0
 25 27  2  0
 14 28  1  0
 28 29  1  0
 29 30  2  0
 30 31  1  0
 31 32  2  0
 32 33  1  0
  7 34  1  0
 34 35  1  0
 35 36  2  0
 36 37  1  0
 36 38  1  0
 38 39  1  0
 33 12  2  0
 39 34  2  0
 25 15  1  0
 32 28  1  0
 24 19  1  0
  1 40  1  0
  1 41  1  0
  1 42  1  0
  5 43  1  0
  5 44  1  0
  6 45  1  0
  9 46  1  0
  9 47  1  0
 10 48  1  0
 10 49  1  0
 11 50  1  0
 13 51  1  0
 16 52  1  0
 16 53  1  0
 17 54  1  0
 17 55  1  0
 18 56  1  0
 20 57  1  0
 21 58  1  0
 22 59  1  0
 23 60  1  0
 24 61  1  0
 29 62  1  0
 33 63  1  0
 35 64  1  0
 37 65  1  0
 37 66  1  0
 37 67  1  0
M  END
>  <Energy>  (470) 
110.53033359798864

>  <compound_id>  (470) 
4135

>  <target_id>  (470) 
1

>  <reference_id>  (470) 
195

>  <inspiration_ids>  (470) 
[144, 195]

>  <energy_score>  (470) 
-68.33871755050319

>  <distance_score>  (470) 
2.438138524790436

>  <path>  (470) 
/opt/xchem-fragalysis-2/maxwin/BulkDock/SCRATCH/505735/C4135-P195/C4135-P195.minimised.mol

>  <scratch_subdir>  (470) 
/opt/xchem-fragalysis-2/maxwin/BulkDock/SCRATCH/505735/C4135-P195

>  <fragmenstein_runtime>  (470) 
15.438177585601807

>  <fragmenstein_outcome>  (470) 
too moved

>  <fragmenstein_mode>  (470) 
expansion

>  <fragmenstein_error>  (470) 


$$$$
C4114-P144
     RDKit          3D

 63 67  0  0  0  0  0  0  0  0999 V2000
    3.6919   -5.2024   26.9219 C   0  0  0  0  0  0  0  0  0  0  0  0
    3.8229   -4.3508   28.4742 S   0  0  0  0  0  0  0  0  0  0  0  0
    4.9233   -4.9335   29.2071 O   0  0  0  0  0  0  0  0  0  0  0  0
    3.7103   -2.9376   28.2181 O   0  0  0  0  0  0  0  0  0  0  0  0
    2.4314   -4.8093   29.3609 N   0  0  0  0  0  0  0  0  0  0  0  0
    2.2636   -3.9711   30.6196 C   0  0  0  0  0  0  0  0  0  0  0  0
    1.5023   -2.6929   30.2500 C   0  0  0  0  0  0  0  0  0  0  0  0
    0.3974   -2.1923   31.1854 C   0  0  0  0  0  0  0  0  0  0  0  0
    0.0445   -3.0619   32.3929 C   0  0  0  0  0  0  0  0  0  0  0  0
    0.2117   -4.5563   32.1162 C   0  0  0  0  0  0  0  0  0  0  0  0
   -0.5837   -4.8850   30.8472 C   0  0  0  0  0  0  0  0  0  0  0  0
   -0.3966   -6.3226   30.4201 C   0  0  0  0  0  0  0  0  0  0  0  0
   -0.8295   -7.1821   31.5150 C   0  0  0  0  0  0  0  0  0  0  0  0
   -1.4884   -8.2968   31.3548 N   0  0  0  0  0  0  0  0  0  0  0  0
   -1.9584   -8.6475   32.5724 N   0  0  0  0  0  0  0  0  0  0  0  0
   -1.5428   -7.7823   33.4641 C   0  0  0  0  0  0  0  0  0  0  0  0
   -1.7694   -7.8827   34.7959 N   0  0  0  0  0  0  0  0  0  0  0  0
   -0.7553   -6.8346   32.8507 N   0  0  0  0  0  0  0  0  0  0  0  0
   -0.3330   -5.4954   33.3274 C   0  0  0  0  0  0  0  0  0  0  0  0
    0.5502   -5.3251   34.5373 N   0  0  0  0  0  0  0  0  0  0  0  0
    0.0144   -4.3376   35.5460 C   0  0  0  0  0  0  0  0  0  0  0  0
    0.6181   -4.6676   36.9163 C   0  0  0  0  0  0  0  0  0  0  0  0
    0.6351   -6.1832   36.9553 C   0  0  0  0  0  0  0  0  0  0  0  0
    1.2397   -6.8383   38.1687 C   0  0  0  0  0  0  0  0  0  0  0  0
    2.5563   -7.2949   38.2848 C   0  0  0  0  0  0  0  0  0  0  0  0
    2.9855   -7.9487   39.4467 C   0  0  0  0  0  0  0  0  0  0  0  0
    2.1133   -8.1438   40.5148 C   0  0  0  0  0  0  0  0  0  0  0  0
    0.8124   -7.6658   40.4346 C   0  0  0  0  0  0  0  0  0  0  0  0
    0.3877   -7.0094   39.2800 C   0  0  0  0  0  0  0  0  0  0  0  0
    1.3487   -6.5973   35.3659 S   0  0  0  0  0  0  0  0  0  0  0  0
    2.7572   -6.2884   35.2994 O   0  0  0  0  0  0  0  0  0  0  0  0
    0.8798   -7.8845   34.9323 O   0  0  0  0  0  0  0  0  0  0  0  0
    1.6917   -4.7533   31.8303 C   0  0  0  0  0  0  0  0  0  0  0  0
    3.6038   -6.2729   27.1096 H   0  0  0  0  0  0  0  0  0  0  0  0
    4.6095   -5.0089   26.3608 H   0  0  0  0  0  0  0  0  0  0  0  0
    2.8454   -4.8012   26.3698 H   0  0  0  0  0  0  0  0  0  0  0  0
    2.5348   -5.7930   29.5751 H   0  0  0  0  0  0  0  0  0  0  0  0
    3.2738   -3.6809   30.9424 H   0  0  0  0  0  0  0  0  0  0  0  0
    1.0777   -2.7737   29.2395 H   0  0  0  0  0  0  0  0  0  0  0  0
    2.2361   -1.8801   30.1568 H   0  0  0  0  0  0  0  0  0  0  0  0
   -0.5119   -2.0342   30.5895 H   0  0  0  0  0  0  0  0  0  0  0  0
    0.6618   -1.1905   31.5485 H   0  0  0  0  0  0  0  0  0  0  0  0
    0.7001   -2.7583   33.2167 H   0  0  0  0  0  0  0  0  0  0  0  0
   -0.9789   -2.8323   32.7144 H   0  0  0  0  0  0  0  0  0  0  0  0
   -0.3677   -4.2677   29.9754 H   0  0  0  0  0  0  0  0  0  0  0  0
   -1.6136   -4.6490   31.1148 H   0  0  0  0  0  0  0  0  0  0  0  0
    0.6283   -6.5472   30.1446 H   0  0  0  0  0  0  0  0  0  0  0  0
   -0.9787   -6.5445   29.5210 H   0  0  0  0  0  0  0  0  0  0  0  0
   -2.2624   -8.7783   34.9466 H   0  0  0  0  0  0  0  0  0  0  0  0
   -0.8843   -8.1300   35.2581 H   0  0  0  0  0  0  0  0  0  0  0  0
   -1.3037   -5.0635   33.5843 H   0  0  0  0  0  0  0  0  0  0  0  0
    0.2779   -3.3166   35.2650 H   0  0  0  0  0  0  0  0  0  0  0  0
   -1.0743   -4.4184   35.6143 H   0  0  0  0  0  0  0  0  0  0  0  0
    1.6348   -4.2616   36.9897 H   0  0  0  0  0  0  0  0  0  0  0  0
    0.0267   -4.2308   37.7274 H   0  0  0  0  0  0  0  0  0  0  0  0
   -0.3992   -6.5490   36.8791 H   0  0  0  0  0  0  0  0  0  0  0  0
    3.2817   -7.1720   37.4852 H   0  0  0  0  0  0  0  0  0  0  0  0
    4.0091   -8.3100   39.5127 H   0  0  0  0  0  0  0  0  0  0  0  0
    2.4520   -8.6581   41.4096 H   0  0  0  0  0  0  0  0  0  0  0  0
    0.1262   -7.8058   41.2655 H   0  0  0  0  0  0  0  0  0  0  0  0
   -0.6375   -6.6432   39.2482 H   0  0  0  0  0  0  0  0  0  0  0  0
    1.8146   -5.8224   31.7575 H   0  0  0  0  0  0  0  0  0  0  0  0
    2.2722   -4.4512   32.7132 H   0  0  0  0  0  0  0  0  0  0  0  0
  1  2  1  0
  2  3  2  0
  2  4  2  0
  2  5  1  0
  5  6  1  0
  6  7  1  0
  7  8  1  0
  8  9  1  0
  9 10  1  0
 10 11  1  0
 11 12  1  0
 12 13  1  0
 13 14  2  0
 14 15  1  0
 15 16  2  0
 16 17  1  0
 16 18  1  0
 18 19  1  0
 19 20  1  0
 20 21  1  0
 21 22  1  0
 22 23  1  0
 23 24  1  0
 24 25  2  0
 25 26  1  0
 26 27  2  0
 27 28  1  0
 28 29  2  0
 23 30  1  0
 30 31  2  0
 30 32  2  0
 10 33  1  0
 33  6  1  0
 19 10  1  0
 30 20  1  0
 18 13  1  0
 29 24  1  0
  1 34  1  0
  1 35  1  0
  1 36  1  0
  5 37  1  0
  6 38  1  0
  7 39  1  0
  7 40  1  0
  8 41  1  0
  8 42  1  0
  9 43  1  0
  9 44  1  0
 11 45  1  0
 11 46  1  0
 12 47  1  0
 12 48  1  0
 17 49  1  0
 17 50  1  0
 19 51  1  0
 21 52  1  0
 21 53  1  0
 22 54  1  0
 22 55  1  0
 23 56  1  0
 25 57  1  0
 26 58  1  0
 27 59  1  0
 28 60  1  0
 29 61  1  0
 33 62  1  0
 33 63  1  0
M  END
>  <Energy>  (471) 
-37.795491907008099

>  <compound_id>  (471) 
4114

>  <target_id>  (471) 
1

>  <reference_id>  (471) 
144

>  <inspiration_ids>  (471) 
[144, 200]

>  <energy_score>  (471) 
-131.96488319002805

>  <distance_score>  (471) 
1.57026755150848

>  <path>  (471) 
/opt/xchem-fragalysis-2/maxwin/BulkDock/SCRATCH/505735/C4114-P144/C4114-P144.minimised.mol

>  <scratch_subdir>  (471) 
/opt/xchem-fragalysis-2/maxwin/BulkDock/SCRATCH/505735/C4114-P144

>  <fragmenstein_runtime>  (471) 
18.823657512664795

>  <fragmenstein_outcome>  (471) 
too moved

>  <fragmenstein_mode>  (471) 
expansion

>  <fragmenstein_error>  (471) 


$$$$
C4114-P200
     RDKit          3D

 63 67  0  0  0  0  0  0  0  0999 V2000
    4.3909   -5.3738   27.2138 C   0  0  0  0  0  0  0  0  0  0  0  0
    4.4477   -3.9536   28.2933 S   0  0  0  0  0  0  0  0  0  0  0  0
    5.8285   -3.5561   28.4096 O   0  0  0  0  0  0  0  0  0  0  0  0
    3.3968   -3.0390   27.9177 O   0  0  0  0  0  0  0  0  0  0  0  0
    4.0939   -4.5231   29.8493 N   0  0  0  0  0  0  0  0  0  0  0  0
    2.6731   -4.4751   30.2461 C   0  0  0  0  0  0  0  0  0  0  0  0
    1.9723   -5.5710   29.4116 C   0  0  0  0  0  0  0  0  0  0  0  0
    0.8869   -6.3609   30.0818 C   0  0  0  0  0  0  0  0  0  0  0  0
    1.1442   -6.4003   31.5601 C   0  0  0  0  0  0  0  0  0  0  0  0
    1.1169   -5.0079   32.2156 C   0  0  0  0  0  0  0  0  0  0  0  0
    0.1344   -3.9800   31.5554 C   0  0  0  0  0  0  0  0  0  0  0  0
   -1.3066   -4.3012   31.8519 C   0  0  0  0  0  0  0  0  0  0  0  0
   -1.4072   -5.6731   32.4056 C   0  0  0  0  0  0  0  0  0  0  0  0
   -1.7813   -6.8023   31.8419 N   0  0  0  0  0  0  0  0  0  0  0  0
   -1.7082   -7.7660   32.8092 N   0  0  0  0  0  0  0  0  0  0  0  0
   -1.1986   -7.2197   33.8931 C   0  0  0  0  0  0  0  0  0  0  0  0
   -1.2384   -7.7684   35.1270 N   0  0  0  0  0  0  0  0  0  0  0  0
   -0.7388   -5.9669   33.5907 N   0  0  0  0  0  0  0  0  0  0  0  0
    0.5439   -5.1970   33.7103 C   0  0  0  0  0  0  0  0  0  0  0  0
    1.5726   -5.3170   34.7600 N   0  0  0  0  0  0  0  0  0  0  0  0
    1.4803   -4.1920   35.7798 C   0  0  0  0  0  0  0  0  0  0  0  0
    1.7417   -4.7563   37.1771 C   0  0  0  0  0  0  0  0  0  0  0  0
    1.2613   -6.1941   37.1159 C   0  0  0  0  0  0  0  0  0  0  0  0
    1.5765   -7.0349   38.3183 C   0  0  0  0  0  0  0  0  0  0  0  0
    2.8351   -7.5750   38.6033 C   0  0  0  0  0  0  0  0  0  0  0  0
    3.0301   -8.3572   39.7447 C   0  0  0  0  0  0  0  0  0  0  0  0
    1.9788   -8.5930   40.6264 C   0  0  0  0  0  0  0  0  0  0  0  0
    0.7341   -8.0262   40.3847 C   0  0  0  0  0  0  0  0  0  0  0  0
    0.5413   -7.2431   39.2488 C   0  0  0  0  0  0  0  0  0  0  0  0
    1.9789   -6.7568   35.5702 S   0  0  0  0  0  0  0  0  0  0  0  0
    3.4207   -6.7739   35.6261 O   0  0  0  0  0  0  0  0  0  0  0  0
    1.2811   -7.8835   35.0141 O   0  0  0  0  0  0  0  0  0  0  0  0
    2.5238   -4.4828   31.8343 C   0  0  0  0  0  0  0  0  0  0  0  0
    4.9460   -6.1916   27.6767 H   0  0  0  0  0  0  0  0  0  0  0  0
    4.8735   -5.0916   26.2747 H   0  0  0  0  0  0  0  0  0  0  0  0
    3.3574   -5.6524   27.0123 H   0  0  0  0  0  0  0  0  0  0  0  0
    4.7535   -4.0830   30.4974 H   0  0  0  0  0  0  0  0  0  0  0  0
    2.2715   -3.4983   29.9502 H   0  0  0  0  0  0  0  0  0  0  0  0
    2.7143   -6.3031   29.0743 H   0  0  0  0  0  0  0  0  0  0  0  0
    1.5795   -5.1176   28.4950 H   0  0  0  0  0  0  0  0  0  0  0  0
    0.8713   -7.3842   29.6896 H   0  0  0  0  0  0  0  0  0  0  0  0
   -0.0990   -5.9527   29.8464 H   0  0  0  0  0  0  0  0  0  0  0  0
    2.1307   -6.7789   31.7910 H   0  0  0  0  0  0  0  0  0  0  0  0
    0.5416   -7.1890   31.9935 H   0  0  0  0  0  0  0  0  0  0  0  0
    0.3499   -2.9712   31.9366 H   0  0  0  0  0  0  0  0  0  0  0  0
    0.2368   -3.8863   30.4715 H   0  0  0  0  0  0  0  0  0  0  0  0
   -1.6891   -3.5892   32.5953 H   0  0  0  0  0  0  0  0  0  0  0  0
   -1.8966   -4.1114   30.9640 H   0  0  0  0  0  0  0  0  0  0  0  0
   -1.6918   -8.6930   35.0448 H   0  0  0  0  0  0  0  0  0  0  0  0
   -0.2998   -8.0687   35.4076 H   0  0  0  0  0  0  0  0  0  0  0  0
    0.1100   -4.2108   33.9360 H   0  0  0  0  0  0  0  0  0  0  0  0
    2.2091   -3.4158   35.5267 H   0  0  0  0  0  0  0  0  0  0  0  0
    0.4818   -3.7412   35.7943 H   0  0  0  0  0  0  0  0  0  0  0  0
    2.8157   -4.7073   37.3982 H   0  0  0  0  0  0  0  0  0  0  0  0
    1.2281   -4.1742   37.9495 H   0  0  0  0  0  0  0  0  0  0  0  0
    0.1770   -6.2111   36.9429 H   0  0  0  0  0  0  0  0  0  0  0  0
    3.6914   -7.4126   37.9536 H   0  0  0  0  0  0  0  0  0  0  0  0
    4.0056   -8.7953   39.9419 H   0  0  0  0  0  0  0  0  0  0  0  0
    2.1283   -9.2258   41.4974 H   0  0  0  0  0  0  0  0  0  0  0  0
   -0.0858   -8.2101   41.0735 H   0  0  0  0  0  0  0  0  0  0  0  0
   -0.4375   -6.7971   39.0929 H   0  0  0  0  0  0  0  0  0  0  0  0
    2.6787   -3.4646   32.2138 H   0  0  0  0  0  0  0  0  0  0  0  0
    3.3125   -5.0862   32.2978 H   0  0  0  0  0  0  0  0  0  0  0  0
  1  2  1  0
  2  3  2  0
  2  4  2  0
  2  5  1  0
  5  6  1  0
  6  7  1  0
  7  8  1  0
  8  9  1  0
  9 10  1  0
 10 11  1  0
 11 12  1  0
 12 13  1  0
 13 14  2  0
 14 15  1  0
 15 16  2  0
 16 17  1  0
 16 18  1  0
 18 19  1  0
 19 20  1  0
 20 21  1  0
 21 22  1  0
 22 23  1  0
 23 24  1  0
 24 25  2  0
 25 26  1  0
 26 27  2  0
 27 28  1  0
 28 29  2  0
 23 30  1  0
 30 31  2  0
 30 32  2  0
 10 33  1  0
 33  6  1  0
 19 10  1  0
 30 20  1  0
 18 13  1  0
 29 24  1  0
  1 34  1  0
  1 35  1  0
  1 36  1  0
  5 37  1  0
  6 38  1  0
  7 39  1  0
  7 40  1  0
  8 41  1  0
  8 42  1  0
  9 43  1  0
  9 44  1  0
 11 45  1  0
 11 46  1  0
 12 47  1  0
 12 48  1  0
 17 49  1  0
 17 50  1  0
 19 51  1  0
 21 52  1  0
 21 53  1  0
 22 54  1  0
 22 55  1  0
 23 56  1  0
 25 57  1  0
 26 58  1  0
 27 59  1  0
 28 60  1  0
 29 61  1  0
 33 62  1  0
 33 63  1  0
M  END
>  <Energy>  (472) 
11.40568672600307

>  <compound_id>  (472) 
4114

>  <target_id>  (472) 
1

>  <reference_id>  (472) 
200

>  <inspiration_ids>  (472) 
[144, 200]

>  <energy_score>  (472) 
-82.76370455702444

>  <distance_score>  (472) 
1.7380857964947232

>  <path>  (472) 
/opt/xchem-fragalysis-2/maxwin/BulkDock/SCRATCH/505735/C4114-P200/C4114-P200.minimised.mol

>  <scratch_subdir>  (472) 
/opt/xchem-fragalysis-2/maxwin/BulkDock/SCRATCH/505735/C4114-P200

>  <fragmenstein_runtime>  (472) 
18.234981060028076

>  <fragmenstein_outcome>  (472) 
too moved

>  <fragmenstein_mode>  (472) 
expansion

>  <fragmenstein_error>  (472) 


$$$$
C3786-P144
     RDKit          3D

 58 62  0  0  0  0  0  0  0  0999 V2000
    2.7256   -0.5184   35.6441 C   0  0  0  0  0  0  0  0  0  0  0  0
    2.4858   -1.7082   34.7845 N   0  0  0  0  0  0  0  0  0  0  0  0
    3.8808   -2.1089   35.3279 C   0  0  0  0  0  0  0  0  0  0  0  0
    4.2199   -2.3559   36.7999 C   0  0  0  0  0  0  0  0  0  0  0  0
    3.5539   -3.3124   37.5746 C   0  0  0  0  0  0  0  0  0  0  0  0
    3.9136   -3.5350   38.9058 C   0  0  0  0  0  0  0  0  0  0  0  0
    4.9467   -2.8019   39.4829 C   0  0  0  0  0  0  0  0  0  0  0  0
    5.6261   -1.8504   38.7271 C   0  0  0  0  0  0  0  0  0  0  0  0
    5.2703   -1.6325   37.3941 C   0  0  0  0  0  0  0  0  0  0  0  0
    1.5464   -2.8213   34.9406 C   0  0  0  0  0  0  0  0  0  0  0  0
    0.8195   -3.0854   35.8292 O   0  0  0  0  0  0  0  0  0  0  0  0
    1.7115   -3.4551   33.6161 N   0  0  0  0  0  0  0  0  0  0  0  0
    1.0064   -4.4713   33.0091 C   0  0  0  0  0  0  0  0  0  0  0  0
    1.0195   -4.3957   31.5399 C   0  0  0  0  0  0  0  0  0  0  0  0
    0.3525   -5.2646   30.7600 C   0  0  0  0  0  0  0  0  0  0  0  0
   -0.3649   -6.3269   31.3582 C   0  0  0  0  0  0  0  0  0  0  0  0
   -1.0687   -7.3119   30.8433 N   0  0  0  0  0  0  0  0  0  0  0  0
   -1.5337   -8.0745   31.8831 N   0  0  0  0  0  0  0  0  0  0  0  0
   -1.0881   -7.5445   33.0033 C   0  0  0  0  0  0  0  0  0  0  0  0
   -0.3552   -6.4141   32.7443 N   0  0  0  0  0  0  0  0  0  0  0  0
    0.3201   -5.4983   33.5733 C   0  0  0  0  0  0  0  0  0  0  0  0
    0.4156   -5.6346   34.9844 N   0  0  0  0  0  0  0  0  0  0  0  0
   -0.7543   -5.5770   35.8728 C   0  0  0  0  0  0  0  0  0  0  0  0
   -0.2023   -5.8382   37.2711 C   0  0  0  0  0  0  0  0  0  0  0  0
    0.7360   -7.0453   37.1389 C   0  0  0  0  0  0  0  0  0  0  0  0
    1.6521   -7.3082   38.3163 C   0  0  0  0  0  0  0  0  0  0  0  0
    2.8697   -7.9940   38.1878 C   0  0  0  0  0  0  0  0  0  0  0  0
    3.6504   -8.2981   39.3072 C   0  0  0  0  0  0  0  0  0  0  0  0
    3.2188   -7.9454   40.5813 C   0  0  0  0  0  0  0  0  0  0  0  0
    2.0043   -7.2897   40.7381 C   0  0  0  0  0  0  0  0  0  0  0  0
    1.2280   -6.9805   39.6193 C   0  0  0  0  0  0  0  0  0  0  0  0
    1.5975   -6.7124   35.5762 S   0  0  0  0  0  0  0  0  0  0  0  0
    2.8277   -5.9754   35.7427 O   0  0  0  0  0  0  0  0  0  0  0  0
    1.5738   -7.8940   34.7362 O   0  0  0  0  0  0  0  0  0  0  0  0
    1.8865    0.1391   35.3689 H   0  0  0  0  0  0  0  0  0  0  0  0
    2.5260   -0.6825   36.7105 H   0  0  0  0  0  0  0  0  0  0  0  0
    3.6012    0.1032   35.4065 H   0  0  0  0  0  0  0  0  0  0  0  0
    4.0618   -3.0935   34.8655 H   0  0  0  0  0  0  0  0  0  0  0  0
    4.6538   -1.4970   34.8296 H   0  0  0  0  0  0  0  0  0  0  0  0
    2.7519   -3.9086   37.1533 H   0  0  0  0  0  0  0  0  0  0  0  0
    3.3886   -4.2906   39.4854 H   0  0  0  0  0  0  0  0  0  0  0  0
    5.2255   -2.9794   40.5178 H   0  0  0  0  0  0  0  0  0  0  0  0
    6.4385   -1.2830   39.1736 H   0  0  0  0  0  0  0  0  0  0  0  0
    5.8247   -0.8925   36.8209 H   0  0  0  0  0  0  0  0  0  0  0  0
    2.3706   -2.9171   33.0706 H   0  0  0  0  0  0  0  0  0  0  0  0
    1.5578   -3.5762   31.0698 H   0  0  0  0  0  0  0  0  0  0  0  0
    0.3473   -5.1656   29.6798 H   0  0  0  0  0  0  0  0  0  0  0  0
   -1.2515   -7.9455   33.9928 H   0  0  0  0  0  0  0  0  0  0  0  0
   -1.4888   -6.3394   35.6041 H   0  0  0  0  0  0  0  0  0  0  0  0
   -1.2301   -4.5945   35.8341 H   0  0  0  0  0  0  0  0  0  0  0  0
    0.3547   -4.9600   37.6211 H   0  0  0  0  0  0  0  0  0  0  0  0
   -1.0104   -6.0153   37.9846 H   0  0  0  0  0  0  0  0  0  0  0  0
    0.1356   -7.9470   36.9607 H   0  0  0  0  0  0  0  0  0  0  0  0
    3.2412   -8.3147   37.2171 H   0  0  0  0  0  0  0  0  0  0  0  0
    4.5971   -8.8172   39.1797 H   0  0  0  0  0  0  0  0  0  0  0  0
    3.8263   -8.1856   41.4494 H   0  0  0  0  0  0  0  0  0  0  0  0
    1.6543   -7.0225   41.7320 H   0  0  0  0  0  0  0  0  0  0  0  0
    0.2733   -6.4895   39.7951 H   0  0  0  0  0  0  0  0  0  0  0  0
  1  2  1  0
  2  3  1  0
  3  4  1  0
  4  5  2  0
  5  6  1  0
  6  7  2  0
  7  8  1  0
  8  9  2  0
  2 10  1  0
 10 11  2  0
 10 12  1  0
 12 13  1  0
 13 14  1  0
 14 15  2  0
 15 16  1  0
 16 17  2  0
 17 18  1  0
 18 19  2  0
 19 20  1  0
 20 21  1  0
 21 22  1  0
 22 23  1  0
 23 24  1  0
 24 25  1  0
 25 26  1  0
 26 27  2  0
 27 28  1  0
 28 29  2  0
 29 30  1  0
 30 31  2  0
 25 32  1  0
 32 33  2  0
 32 34  2  0
  9  4  1  0
 21 13  2  0
 32 22  1  0
 20 16  1  0
 31 26  1  0
  1 35  1  0
  1 36  1  0
  1 37  1  0
  3 38  1  0
  3 39  1  0
  5 40  1  0
  6 41  1  0
  7 42  1  0
  8 43  1  0
  9 44  1  0
 12 45  1  0
 14 46  1  0
 15 47  1  0
 19 48  1  0
 23 49  1  0
 23 50  1  0
 24 51  1  0
 24 52  1  0
 25 53  1  0
 27 54  1  0
 28 55  1  0
 29 56  1  0
 30 57  1  0
 31 58  1  0
M  END
>  <Energy>  (473) 
99.212076161075643

>  <compound_id>  (473) 
3786

>  <target_id>  (473) 
1

>  <reference_id>  (473) 
144

>  <inspiration_ids>  (473) 
[144, 201]

>  <energy_score>  (473) 
38.67829722538991

>  <distance_score>  (473) 
3.5567668843813114

>  <path>  (473) 
/opt/xchem-fragalysis-2/maxwin/BulkDock/SCRATCH/505735/C3786-P144/C3786-P144.minimised.mol

>  <scratch_subdir>  (473) 
/opt/xchem-fragalysis-2/maxwin/BulkDock/SCRATCH/505735/C3786-P144

>  <fragmenstein_runtime>  (473) 
14.097226619720459

>  <fragmenstein_outcome>  (473) 
too moved

>  <fragmenstein_mode>  (473) 
expansion

>  <fragmenstein_error>  (473) 


$$$$
C3786-P201
     RDKit          3D

 58 62  0  0  0  0  0  0  0  0999 V2000
    4.7496   -2.1701   35.1550 C   0  0  0  0  0  0  0  0  0  0  0  0
    3.7372   -2.7191   34.2160 N   0  0  0  0  0  0  0  0  0  0  0  0
    4.9438   -2.6930   33.2494 C   0  0  0  0  0  0  0  0  0  0  0  0
    4.4908   -2.5870   31.7935 C   0  0  0  0  0  0  0  0  0  0  0  0
    4.6913   -3.6475   30.8984 C   0  0  0  0  0  0  0  0  0  0  0  0
    4.3026   -3.5262   29.5630 C   0  0  0  0  0  0  0  0  0  0  0  0
    3.7105   -2.3478   29.1108 C   0  0  0  0  0  0  0  0  0  0  0  0
    3.5062   -1.2873   29.9920 C   0  0  0  0  0  0  0  0  0  0  0  0
    3.8971   -1.4027   31.3265 C   0  0  0  0  0  0  0  0  0  0  0  0
    3.0854   -4.0401   34.1788 C   0  0  0  0  0  0  0  0  0  0  0  0
    3.2785   -5.0002   34.8308 O   0  0  0  0  0  0  0  0  0  0  0  0
    2.0608   -3.7718   33.1566 N   0  0  0  0  0  0  0  0  0  0  0  0
    1.1012   -4.5893   32.6100 C   0  0  0  0  0  0  0  0  0  0  0  0
    0.8514   -4.2942   31.2022 C   0  0  0  0  0  0  0  0  0  0  0  0
    0.1465   -5.1160   30.4161 C   0  0  0  0  0  0  0  0  0  0  0  0
   -0.4053   -6.2932   30.9648 C   0  0  0  0  0  0  0  0  0  0  0  0
   -1.0840   -7.2590   30.3884 N   0  0  0  0  0  0  0  0  0  0  0  0
   -1.4472   -8.1379   31.3614 N   0  0  0  0  0  0  0  0  0  0  0  0
   -0.9738   -7.6892   32.5064 C   0  0  0  0  0  0  0  0  0  0  0  0
   -0.2848   -6.5120   32.3432 N   0  0  0  0  0  0  0  0  0  0  0  0
    0.4368   -5.6272   33.1980 C   0  0  0  0  0  0  0  0  0  0  0  0
    0.4998   -5.6525   34.6396 N   0  0  0  0  0  0  0  0  0  0  0  0
    0.0986   -4.5084   35.4930 C   0  0  0  0  0  0  0  0  0  0  0  0
    0.7721   -4.7862   36.8442 C   0  0  0  0  0  0  0  0  0  0  0  0
    0.5286   -6.2674   37.1476 C   0  0  0  0  0  0  0  0  0  0  0  0
    1.4959   -6.9768   38.0556 C   0  0  0  0  0  0  0  0  0  0  0  0
    2.8842   -6.9141   37.8812 C   0  0  0  0  0  0  0  0  0  0  0  0
    3.7431   -7.5749   38.7635 C   0  0  0  0  0  0  0  0  0  0  0  0
    3.2283   -8.3071   39.8308 C   0  0  0  0  0  0  0  0  0  0  0  0
    1.8524   -8.3869   40.0129 C   0  0  0  0  0  0  0  0  0  0  0  0
    0.9944   -7.7298   39.1310 C   0  0  0  0  0  0  0  0  0  0  0  0
    0.3613   -7.0774   35.5458 S   0  0  0  0  0  0  0  0  0  0  0  0
    1.4689   -7.9218   35.1512 O   0  0  0  0  0  0  0  0  0  0  0  0
   -1.0255   -7.4879   35.4622 O   0  0  0  0  0  0  0  0  0  0  0  0
    4.9877   -1.1119   34.9757 H   0  0  0  0  0  0  0  0  0  0  0  0
    5.6108   -2.8244   35.3619 H   0  0  0  0  0  0  0  0  0  0  0  0
    4.2199   -2.1593   36.1188 H   0  0  0  0  0  0  0  0  0  0  0  0
    5.6521   -1.8463   33.3158 H   0  0  0  0  0  0  0  0  0  0  0  0
    5.5049   -3.6350   33.3637 H   0  0  0  0  0  0  0  0  0  0  0  0
    5.1598   -4.5708   31.2313 H   0  0  0  0  0  0  0  0  0  0  0  0
    4.4735   -4.3461   28.8694 H   0  0  0  0  0  0  0  0  0  0  0  0
    3.4181   -2.2502   28.0675 H   0  0  0  0  0  0  0  0  0  0  0  0
    3.0523   -0.3661   29.6335 H   0  0  0  0  0  0  0  0  0  0  0  0
    3.7433   -0.5620   32.0005 H   0  0  0  0  0  0  0  0  0  0  0  0
    2.2396   -2.8705   32.7366 H   0  0  0  0  0  0  0  0  0  0  0  0
    1.2600   -3.3824   30.7756 H   0  0  0  0  0  0  0  0  0  0  0  0
   -0.0287   -4.8793   29.3734 H   0  0  0  0  0  0  0  0  0  0  0  0
   -1.1018   -8.2179   33.4324 H   0  0  0  0  0  0  0  0  0  0  0  0
   -0.9905   -4.4897   35.5984 H   0  0  0  0  0  0  0  0  0  0  0  0
    0.4153   -3.5372   35.1094 H   0  0  0  0  0  0  0  0  0  0  0  0
    1.8389   -4.5556   36.7864 H   0  0  0  0  0  0  0  0  0  0  0  0
    0.3595   -4.1468   37.6323 H   0  0  0  0  0  0  0  0  0  0  0  0
   -0.4772   -6.3244   37.5880 H   0  0  0  0  0  0  0  0  0  0  0  0
    3.3161   -6.3667   37.0452 H   0  0  0  0  0  0  0  0  0  0  0  0
    4.8177   -7.5227   38.6090 H   0  0  0  0  0  0  0  0  0  0  0  0
    3.8995   -8.8238   40.5107 H   0  0  0  0  0  0  0  0  0  0  0  0
    1.4414   -8.9725   40.8304 H   0  0  0  0  0  0  0  0  0  0  0  0
   -0.0771   -7.8280   39.2883 H   0  0  0  0  0  0  0  0  0  0  0  0
  1  2  1  0
  2  3  1  0
  3  4  1  0
  4  5  2  0
  5  6  1  0
  6  7  2  0
  7  8  1  0
  8  9  2  0
  2 10  1  0
 10 11  2  0
 10 12  1  0
 12 13  1  0
 13 14  1  0
 14 15  2  0
 15 16  1  0
 16 17  2  0
 17 18  1  0
 18 19  2  0
 19 20  1  0
 20 21  1  0
 21 22  1  0
 22 23  1  0
 23 24  1  0
 24 25  1  0
 25 26  1  0
 26 27  2  0
 27 28  1  0
 28 29  2  0
 29 30  1  0
 30 31  2  0
 25 32  1  0
 32 33  2  0
 32 34  2  0
  9  4  1  0
 21 13  2  0
 32 22  1  0
 20 16  1  0
 31 26  1  0
  1 35  1  0
  1 36  1  0
  1 37  1  0
  3 38  1  0
  3 39  1  0
  5 40  1  0
  6 41  1  0
  7 42  1  0
  8 43  1  0
  9 44  1  0
 12 45  1  0
 14 46  1  0
 15 47  1  0
 19 48  1  0
 23 49  1  0
 23 50  1  0
 24 51  1  0
 24 52  1  0
 25 53  1  0
 27 54  1  0
 28 55  1  0
 29 56  1  0
 30 57  1  0
 31 58  1  0
M  END
>  <Energy>  (474) 
101.07449864737264

>  <compound_id>  (474) 
3786

>  <target_id>  (474) 
1

>  <reference_id>  (474) 
201

>  <inspiration_ids>  (474) 
[144, 201]

>  <energy_score>  (474) 
40.54071971168642

>  <distance_score>  (474) 
3.017836822337793

>  <path>  (474) 
/opt/xchem-fragalysis-2/maxwin/BulkDock/SCRATCH/505735/C3786-P201/C3786-P201.minimised.mol

>  <scratch_subdir>  (474) 
/opt/xchem-fragalysis-2/maxwin/BulkDock/SCRATCH/505735/C3786-P201

>  <fragmenstein_runtime>  (474) 
13.770988702774048

>  <fragmenstein_outcome>  (474) 
too moved

>  <fragmenstein_mode>  (474) 
expansion

>  <fragmenstein_error>  (474) 


$$$$
C4116-P145
     RDKit          3D

 63 67  0  0  0  0  0  0  0  0999 V2000
    1.9258    0.9624   28.2871 C   0  0  0  0  0  0  0  0  0  0  0  0
    0.7727    0.1389   28.4069 O   0  0  0  0  0  0  0  0  0  0  0  0
    0.6192   -0.4776   29.7138 C   0  0  0  0  0  0  0  0  0  0  0  0
    1.7057   -1.5381   29.9183 C   0  0  0  0  0  0  0  0  0  0  0  0
    1.5357   -2.5150   31.1139 C   0  0  0  0  0  0  0  0  0  0  0  0
    0.1701   -3.2726   31.2493 C   0  0  0  0  0  0  0  0  0  0  0  0
   -0.1347   -4.0194   29.9097 C   0  0  0  0  0  0  0  0  0  0  0  0
    0.1861   -5.4888   29.8372 C   0  0  0  0  0  0  0  0  0  0  0  0
   -0.4655   -6.2566   30.8946 C   0  0  0  0  0  0  0  0  0  0  0  0
   -1.1200   -7.3840   30.7706 N   0  0  0  0  0  0  0  0  0  0  0  0
   -1.5655   -7.7151   32.0083 N   0  0  0  0  0  0  0  0  0  0  0  0
   -1.1493   -6.8009   32.8580 C   0  0  0  0  0  0  0  0  0  0  0  0
   -1.3123   -6.9183   34.1918 N   0  0  0  0  0  0  0  0  0  0  0  0
   -0.4897   -5.8001   32.1855 N   0  0  0  0  0  0  0  0  0  0  0  0
    0.2998   -4.5771   32.4952 C   0  0  0  0  0  0  0  0  0  0  0  0
    0.7614   -4.3377   33.9289 N   0  0  0  0  0  0  0  0  0  0  0  0
   -0.1428   -3.7029   34.9092 C   0  0  0  0  0  0  0  0  0  0  0  0
   -0.1451   -4.5345   36.2162 C   0  0  0  0  0  0  0  0  0  0  0  0
    1.2677   -5.0951   36.4315 C   0  0  0  0  0  0  0  0  0  0  0  0
    1.4930   -6.2351   37.4269 C   0  0  0  0  0  0  0  0  0  0  0  0
    2.7223   -6.9281   37.4736 C   0  0  0  0  0  0  0  0  0  0  0  0
    2.9580   -7.9530   38.4016 C   0  0  0  0  0  0  0  0  0  0  0  0
    1.9809   -8.2939   39.3280 C   0  0  0  0  0  0  0  0  0  0  0  0
    0.7785   -7.5952   39.3355 C   0  0  0  0  0  0  0  0  0  0  0  0
    0.5380   -6.5756   38.4001 C   0  0  0  0  0  0  0  0  0  0  0  0
    1.7168   -5.5826   34.7471 S   0  0  0  0  0  0  0  0  0  0  0  0
    1.2361   -6.9147   34.4517 O   0  0  0  0  0  0  0  0  0  0  0  0
    3.1045   -5.2929   34.5212 O   0  0  0  0  0  0  0  0  0  0  0  0
   -0.9067   -2.0501   31.1874 C   0  0  0  0  0  0  0  0  0  0  0  0
   -0.8042   -1.0854   29.8407 C   0  0  0  0  0  0  0  0  0  0  0  0
   -1.8235   -0.0306   29.8370 O   0  0  0  0  0  0  0  0  0  0  0  0
   -1.6853    0.9467   28.7771 C   0  0  0  0  0  0  0  0  0  0  0  0
    1.9739    1.6882   29.1042 H   0  0  0  0  0  0  0  0  0  0  0  0
    2.8343    0.3556   28.2610 H   0  0  0  0  0  0  0  0  0  0  0  0
    1.8561    1.5089   27.3427 H   0  0  0  0  0  0  0  0  0  0  0  0
    0.7191    0.3074   30.4750 H   0  0  0  0  0  0  0  0  0  0  0  0
    1.8400   -2.1073   28.9905 H   0  0  0  0  0  0  0  0  0  0  0  0
    2.6692   -1.0307   30.0582 H   0  0  0  0  0  0  0  0  0  0  0  0
    2.3473   -3.2510   31.0524 H   0  0  0  0  0  0  0  0  0  0  0  0
    1.7042   -1.9539   32.0423 H   0  0  0  0  0  0  0  0  0  0  0  0
   -1.2061   -3.9229   29.7082 H   0  0  0  0  0  0  0  0  0  0  0  0
    0.3456   -3.5457   29.0498 H   0  0  0  0  0  0  0  0  0  0  0  0
   -0.2661   -5.8456   28.9213 H   0  0  0  0  0  0  0  0  0  0  0  0
    1.2642   -5.6554   29.8099 H   0  0  0  0  0  0  0  0  0  0  0  0
   -0.4064   -7.1213   34.6287 H   0  0  0  0  0  0  0  0  0  0  0  0
   -1.8307   -7.7816   34.3757 H   0  0  0  0  0  0  0  0  0  0  0  0
    1.2802   -4.9478   32.1363 H   0  0  0  0  0  0  0  0  0  0  0  0
    0.2586   -2.7053   35.1226 H   0  0  0  0  0  0  0  0  0  0  0  0
   -1.1416   -3.5687   34.5086 H   0  0  0  0  0  0  0  0  0  0  0  0
   -0.8728   -5.3458   36.1288 H   0  0  0  0  0  0  0  0  0  0  0  0
   -0.4657   -3.9182   37.0634 H   0  0  0  0  0  0  0  0  0  0  0  0
    1.9374   -4.2685   36.7015 H   0  0  0  0  0  0  0  0  0  0  0  0
    3.5298   -6.6802   36.7852 H   0  0  0  0  0  0  0  0  0  0  0  0
    3.9071   -8.4835   38.3978 H   0  0  0  0  0  0  0  0  0  0  0  0
    2.1493   -9.1013   40.0368 H   0  0  0  0  0  0  0  0  0  0  0  0
    0.0200   -7.8500   40.0719 H   0  0  0  0  0  0  0  0  0  0  0  0
   -0.4130   -6.0507   38.4609 H   0  0  0  0  0  0  0  0  0  0  0  0
   -0.7767   -1.4122   32.0708 H   0  0  0  0  0  0  0  0  0  0  0  0
   -1.9280   -2.4461   31.2479 H   0  0  0  0  0  0  0  0  0  0  0  0
   -1.0253   -1.6965   28.9584 H   0  0  0  0  0  0  0  0  0  0  0  0
   -0.8278    1.5949   28.9679 H   0  0  0  0  0  0  0  0  0  0  0  0
   -2.5226    1.6369   28.8128 H   0  0  0  0  0  0  0  0  0  0  0  0
   -1.6470    0.4613   27.7985 H   0  0  0  0  0  0  0  0  0  0  0  0
  1  2  1  0
  2  3  1  0
  3  4  1  0
  4  5  1  0
  5  6  1  0
  6  7  1  0
  7  8  1  0
  8  9  1  0
  9 10  2  0
 10 11  1  0
 11 12  2  0
 12 13  1  0
 12 14  1  0
 14 15  1  0
 15 16  1  0
 16 17  1  0
 17 18  1  0
 18 19  1  0
 19 20  1  0
 20 21  2  0
 21 22  1  0
 22 23  2  0
 23 24  1  0
 24 25  2  0
 19 26  1  0
 26 27  2  0
 26 28  2  0
  6 29  1  0
 29 30  1  0
 30 31  1  0
 31 32  1  0
 30  3  1  0
 15  6  1  0
 26 16  1  0
 14  9  1  0
 25 20  1  0
  1 33  1  0
  1 34  1  0
  1 35  1  0
  3 36  1  0
  4 37  1  0
  4 38  1  0
  5 39  1  0
  5 40  1  0
  7 41  1  0
  7 42  1  0
  8 43  1  0
  8 44  1  0
 13 45  1  0
 13 46  1  0
 15 47  1  0
 17 48  1  0
 17 49  1  0
 18 50  1  0
 18 51  1  0
 19 52  1  0
 21 53  1  0
 22 54  1  0
 23 55  1  0
 24 56  1  0
 25 57  1  0
 29 58  1  0
 29 59  1  0
 30 60  1  0
 32 61  1  0
 32 62  1  0
 32 63  1  0
M  END
>  <Energy>  (475) 
99.213691831803885

>  <compound_id>  (475) 
4116

>  <target_id>  (475) 
1

>  <reference_id>  (475) 
145

>  <inspiration_ids>  (475) 
[145, 13]

>  <energy_score>  (475) 
-15.433164818666853

>  <distance_score>  (475) 
2.3419594575549483

>  <path>  (475) 
/opt/xchem-fragalysis-2/maxwin/BulkDock/SCRATCH/505735/C4116-P145/C4116-P145.minimised.mol

>  <scratch_subdir>  (475) 
/opt/xchem-fragalysis-2/maxwin/BulkDock/SCRATCH/505735/C4116-P145

>  <fragmenstein_runtime>  (475) 
15.959462881088257

>  <fragmenstein_outcome>  (475) 
too moved

>  <fragmenstein_mode>  (475) 
expansion

>  <fragmenstein_error>  (475) 


$$$$
C4116-P13
     RDKit          3D

 63 67  0  0  0  0  0  0  0  0999 V2000
    0.8037    1.8989   29.5449 C   0  0  0  0  0  0  0  0  0  0  0  0
    0.2466    0.6940   29.0406 O   0  0  0  0  0  0  0  0  0  0  0  0
    0.0140   -0.3227   30.0465 C   0  0  0  0  0  0  0  0  0  0  0  0
    1.3304   -0.8930   30.5957 C   0  0  0  0  0  0  0  0  0  0  0  0
    1.1773   -2.0369   31.6450 C   0  0  0  0  0  0  0  0  0  0  0  0
    0.3749   -3.3045   31.2101 C   0  0  0  0  0  0  0  0  0  0  0  0
    1.1099   -3.9825   29.9604 C   0  0  0  0  0  0  0  0  0  0  0  0
    1.3023   -5.5106   29.9889 C   0  0  0  0  0  0  0  0  0  0  0  0
    0.1657   -6.2131   30.6343 C   0  0  0  0  0  0  0  0  0  0  0  0
   -0.5331   -7.2596   30.2616 N   0  0  0  0  0  0  0  0  0  0  0  0
   -1.3497   -7.5993   31.3118 N   0  0  0  0  0  0  0  0  0  0  0  0
   -1.0920   -6.7820   32.3102 C   0  0  0  0  0  0  0  0  0  0  0  0
   -1.5133   -6.9603   33.5796 N   0  0  0  0  0  0  0  0  0  0  0  0
   -0.2401   -5.8062   31.8822 N   0  0  0  0  0  0  0  0  0  0  0  0
    0.3889   -4.5879   32.4165 C   0  0  0  0  0  0  0  0  0  0  0  0
    0.6239   -4.4345   33.9188 N   0  0  0  0  0  0  0  0  0  0  0  0
   -0.4448   -3.9348   34.8019 C   0  0  0  0  0  0  0  0  0  0  0  0
   -0.3902   -4.7067   36.1527 C   0  0  0  0  0  0  0  0  0  0  0  0
    1.0594   -5.1638   36.4098 C   0  0  0  0  0  0  0  0  0  0  0  0
    1.3417   -6.2418   37.4600 C   0  0  0  0  0  0  0  0  0  0  0  0
    2.6189   -6.8351   37.5647 C   0  0  0  0  0  0  0  0  0  0  0  0
    2.9078   -7.8019   38.5393 C   0  0  0  0  0  0  0  0  0  0  0  0
    1.9341   -8.1827   39.4545 C   0  0  0  0  0  0  0  0  0  0  0  0
    0.6770   -7.5886   39.3966 C   0  0  0  0  0  0  0  0  0  0  0  0
    0.3854   -6.6270   38.4149 C   0  0  0  0  0  0  0  0  0  0  0  0
    1.5005   -5.7368   34.7582 S   0  0  0  0  0  0  0  0  0  0  0  0
    0.8832   -7.0197   34.5156 O   0  0  0  0  0  0  0  0  0  0  0  0
    2.9059   -5.5799   34.5094 O   0  0  0  0  0  0  0  0  0  0  0  0
   -0.9968   -2.6722   30.5879 C   0  0  0  0  0  0  0  0  0  0  0  0
   -0.8085   -1.4965   29.4609 C   0  0  0  0  0  0  0  0  0  0  0  0
   -2.0732   -0.9992   28.9476 O   0  0  0  0  0  0  0  0  0  0  0  0
   -1.9432   -0.1985   27.7504 C   0  0  0  0  0  0  0  0  0  0  0  0
    0.2568    2.2510   30.4237 H   0  0  0  0  0  0  0  0  0  0  0  0
    1.8602    1.7599   29.7883 H   0  0  0  0  0  0  0  0  0  0  0  0
    0.7338    2.6597   28.7627 H   0  0  0  0  0  0  0  0  0  0  0  0
   -0.5708    0.1368   30.8539 H   0  0  0  0  0  0  0  0  0  0  0  0
    1.9548   -1.2333   29.7606 H   0  0  0  0  0  0  0  0  0  0  0  0
    1.9049   -0.0901   31.0724 H   0  0  0  0  0  0  0  0  0  0  0  0
    2.1819   -2.3451   31.9611 H   0  0  0  0  0  0  0  0  0  0  0  0
    0.6927   -1.6168   32.5359 H   0  0  0  0  0  0  0  0  0  0  0  0
    0.5633   -3.7678   29.0373 H   0  0  0  0  0  0  0  0  0  0  0  0
    2.1040   -3.5394   29.8239 H   0  0  0  0  0  0  0  0  0  0  0  0
    1.5209   -5.8733   28.9873 H   0  0  0  0  0  0  0  0  0  0  0  0
    2.2187   -5.7437   30.5481 H   0  0  0  0  0  0  0  0  0  0  0  0
   -0.7102   -7.1055   34.2032 H   0  0  0  0  0  0  0  0  0  0  0  0
   -1.9906   -7.8648   33.6398 H   0  0  0  0  0  0  0  0  0  0  0  0
    1.4532   -4.8414   32.2594 H   0  0  0  0  0  0  0  0  0  0  0  0
   -0.2547   -2.8722   34.9879 H   0  0  0  0  0  0  0  0  0  0  0  0
   -1.4143   -4.0276   34.3242 H   0  0  0  0  0  0  0  0  0  0  0  0
   -1.0553   -5.5766   36.0797 H   0  0  0  0  0  0  0  0  0  0  0  0
   -0.7723   -4.0857   36.9699 H   0  0  0  0  0  0  0  0  0  0  0  0
    1.6871   -4.2901   36.6237 H   0  0  0  0  0  0  0  0  0  0  0  0
    3.4234   -6.5488   36.8877 H   0  0  0  0  0  0  0  0  0  0  0  0
    3.8990   -8.2471   38.5837 H   0  0  0  0  0  0  0  0  0  0  0  0
    2.1544   -8.9292   40.2127 H   0  0  0  0  0  0  0  0  0  0  0  0
   -0.0840   -7.8714   40.1205 H   0  0  0  0  0  0  0  0  0  0  0  0
   -0.6070   -6.1818   38.4234 H   0  0  0  0  0  0  0  0  0  0  0  0
   -1.6001   -2.2650   31.4091 H   0  0  0  0  0  0  0  0  0  0  0  0
   -1.5931   -3.4719   30.1394 H   0  0  0  0  0  0  0  0  0  0  0  0
   -0.2783   -1.9301   28.6061 H   0  0  0  0  0  0  0  0  0  0  0  0
   -0.9753   -0.3308   27.2599 H   0  0  0  0  0  0  0  0  0  0  0  0
   -2.1177    0.8512   27.9986 H   0  0  0  0  0  0  0  0  0  0  0  0
   -2.6945   -0.5309   27.0406 H   0  0  0  0  0  0  0  0  0  0  0  0
  1  2  1  0
  2  3  1  0
  3  4  1  0
  4  5  1  0
  5  6  1  0
  6  7  1  0
  7  8  1  0
  8  9  1  0
  9 10  2  0
 10 11  1  0
 11 12  2  0
 12 13  1  0
 12 14  1  0
 14 15  1  0
 15 16  1  0
 16 17  1  0
 17 18  1  0
 18 19  1  0
 19 20  1  0
 20 21  2  0
 21 22  1  0
 22 23  2  0
 23 24  1  0
 24 25  2  0
 19 26  1  0
 26 27  2  0
 26 28  2  0
  6 29  1  0
 29 30  1  0
 30 31  1  0
 31 32  1  0
 30  3  1  0
 15  6  1  0
 26 16  1  0
 14  9  1  0
 25 20  1  0
  1 33  1  0
  1 34  1  0
  1 35  1  0
  3 36  1  0
  4 37  1  0
  4 38  1  0
  5 39  1  0
  5 40  1  0
  7 41  1  0
  7 42  1  0
  8 43  1  0
  8 44  1  0
 13 45  1  0
 13 46  1  0
 15 47  1  0
 17 48  1  0
 17 49  1  0
 18 50  1  0
 18 51  1  0
 19 52  1  0
 21 53  1  0
 22 54  1  0
 23 55  1  0
 24 56  1  0
 25 57  1  0
 29 58  1  0
 29 59  1  0
 30 60  1  0
 32 61  1  0
 32 62  1  0
 32 63  1  0
M  END
>  <Energy>  (476) 
92.898065217157153

>  <compound_id>  (476) 
4116

>  <target_id>  (476) 
1

>  <reference_id>  (476) 
13

>  <inspiration_ids>  (476) 
[145, 13]

>  <energy_score>  (476) 
-21.74879143331026

>  <distance_score>  (476) 
2.2922064113755196

>  <path>  (476) 
/opt/xchem-fragalysis-2/maxwin/BulkDock/SCRATCH/505735/C4116-P13/C4116-P13.minimised.mol

>  <scratch_subdir>  (476) 
/opt/xchem-fragalysis-2/maxwin/BulkDock/SCRATCH/505735/C4116-P13

>  <fragmenstein_runtime>  (476) 
15.477553844451904

>  <fragmenstein_outcome>  (476) 
too moved

>  <fragmenstein_mode>  (476) 
expansion

>  <fragmenstein_error>  (476) 


$$$$
C4116-P145
     RDKit          2D

  0  0  0  0  0  0  0  0  0  0999 V2000
M  END
>  <compound_id>  (477) 
4116

>  <target_id>  (477) 
1

>  <reference_id>  (477) 
145

>  <inspiration_ids>  (477) 
[145, 25]

>  <energy_score>  (477) 
nan

>  <distance_score>  (477) 
nan

>  <path>  (477) 
/opt/xchem-fragalysis-2/maxwin/BulkDock/SCRATCH/505735/C4116-P145/C4116-P145.minimised.mol

>  <scratch_subdir>  (477) 
/opt/xchem-fragalysis-2/maxwin/BulkDock/SCRATCH/505735/C4116-P145

>  <fragmenstein_runtime>  (477) 
0.38399267196655273

>  <fragmenstein_outcome>  (477) 
too distant

>  <fragmenstein_mode>  (477) 
expansion

>  <fragmenstein_error>  (477) 
DistanceError: hit0+hit1

$$$$
C3873-P145
     RDKit          3D

 56 60  0  0  0  0  0  0  0  0999 V2000
    3.5831   -4.3675   33.6931 C   0  0  0  0  0  0  0  0  0  0  0  0
    2.7712   -3.7810   32.5719 N   0  0  0  0  0  0  0  0  0  0  0  0
    3.9861   -2.9229   32.4272 C   0  0  0  0  0  0  0  0  0  0  0  0
    3.8908   -2.6197   30.9122 C   0  0  0  0  0  0  0  0  0  0  0  0
    3.0268   -1.6197   30.4416 C   0  0  0  0  0  0  0  0  0  0  0  0
    2.7562   -1.5053   29.0767 C   0  0  0  0  0  0  0  0  0  0  0  0
    3.3449   -2.3837   28.1674 C   0  0  0  0  0  0  0  0  0  0  0  0
    4.2079   -3.3795   28.6172 C   0  0  0  0  0  0  0  0  0  0  0  0
    4.4772   -3.5004   29.9821 C   0  0  0  0  0  0  0  0  0  0  0  0
    1.4594   -3.4664   33.0293 C   0  0  0  0  0  0  0  0  0  0  0  0
    1.0191   -2.4569   33.5005 O   0  0  0  0  0  0  0  0  0  0  0  0
    0.5956   -4.6565   32.7106 C   0  0  0  0  0  0  0  0  0  0  0  0
    0.4500   -4.6928   31.2328 C   0  0  0  0  0  0  0  0  0  0  0  0
   -0.0882   -5.7141   30.5699 C   0  0  0  0  0  0  0  0  0  0  0  0
   -0.6296   -6.7744   31.3067 C   0  0  0  0  0  0  0  0  0  0  0  0
   -1.2092   -7.8751   30.9009 N   0  0  0  0  0  0  0  0  0  0  0  0
   -1.6899   -8.5039   32.0063 N   0  0  0  0  0  0  0  0  0  0  0  0
   -1.3794   -7.7763   33.0575 C   0  0  0  0  0  0  0  0  0  0  0  0
   -0.6292   -6.6880   32.6970 N   0  0  0  0  0  0  0  0  0  0  0  0
    0.0027   -5.6430   33.4298 C   0  0  0  0  0  0  0  0  0  0  0  0
    0.0665   -5.6435   34.8653 N   0  0  0  0  0  0  0  0  0  0  0  0
    0.0205   -4.4830   35.7796 C   0  0  0  0  0  0  0  0  0  0  0  0
    1.1299   -4.7209   36.8144 C   0  0  0  0  0  0  0  0  0  0  0  0
    0.9695   -6.1827   37.2242 C   0  0  0  0  0  0  0  0  0  0  0  0
    2.0237   -6.8996   38.0186 C   0  0  0  0  0  0  0  0  0  0  0  0
    3.3483   -6.4607   38.1196 C   0  0  0  0  0  0  0  0  0  0  0  0
    4.2748   -7.1754   38.8858 C   0  0  0  0  0  0  0  0  0  0  0  0
    3.8922   -8.3330   39.5604 C   0  0  0  0  0  0  0  0  0  0  0  0
    2.5813   -8.7830   39.4691 C   0  0  0  0  0  0  0  0  0  0  0  0
    1.6568   -8.0733   38.7046 C   0  0  0  0  0  0  0  0  0  0  0  0
    0.6937   -7.0317   35.6583 S   0  0  0  0  0  0  0  0  0  0  0  0
    1.9097   -7.3944   34.9573 O   0  0  0  0  0  0  0  0  0  0  0  0
   -0.3860   -7.9711   35.8418 O   0  0  0  0  0  0  0  0  0  0  0  0
    4.4550   -4.9502   33.3604 H   0  0  0  0  0  0  0  0  0  0  0  0
    3.7986   -3.6605   34.5114 H   0  0  0  0  0  0  0  0  0  0  0  0
    2.9474   -5.1224   34.1692 H   0  0  0  0  0  0  0  0  0  0  0  0
    5.0091   -3.3202   32.5419 H   0  0  0  0  0  0  0  0  0  0  0  0
    3.8686   -1.9835   32.9855 H   0  0  0  0  0  0  0  0  0  0  0  0
    2.5204   -0.9570   31.1415 H   0  0  0  0  0  0  0  0  0  0  0  0
    2.0737   -0.7355   28.7222 H   0  0  0  0  0  0  0  0  0  0  0  0
    3.1311   -2.2832   27.1075 H   0  0  0  0  0  0  0  0  0  0  0  0
    4.6679   -4.0617   27.9077 H   0  0  0  0  0  0  0  0  0  0  0  0
    5.1236   -4.3050   30.3243 H   0  0  0  0  0  0  0  0  0  0  0  0
    0.8328   -3.8446   30.6633 H   0  0  0  0  0  0  0  0  0  0  0  0
   -0.1599   -5.7078   29.4908 H   0  0  0  0  0  0  0  0  0  0  0  0
   -1.7018   -7.9974   34.0603 H   0  0  0  0  0  0  0  0  0  0  0  0
    0.1402   -3.5186   35.3009 H   0  0  0  0  0  0  0  0  0  0  0  0
   -0.9586   -4.4766   36.2718 H   0  0  0  0  0  0  0  0  0  0  0  0
    1.0357   -4.0452   37.6703 H   0  0  0  0  0  0  0  0  0  0  0  0
    2.1037   -4.5389   36.3484 H   0  0  0  0  0  0  0  0  0  0  0  0
    0.0200   -6.2580   37.7743 H   0  0  0  0  0  0  0  0  0  0  0  0
    3.6896   -5.5625   37.6135 H   0  0  0  0  0  0  0  0  0  0  0  0
    5.3023   -6.8269   38.9597 H   0  0  0  0  0  0  0  0  0  0  0  0
    4.6153   -8.8868   40.1536 H   0  0  0  0  0  0  0  0  0  0  0  0
    2.2732   -9.6940   39.9804 H   0  0  0  0  0  0  0  0  0  0  0  0
    0.6408   -8.4648   38.6486 H   0  0  0  0  0  0  0  0  0  0  0  0
  1  2  1  0
  2  3  1  0
  3  4  1  0
  4  5  2  0
  5  6  1  0
  6  7  2  0
  7  8  1  0
  8  9  2  0
  2 10  1  0
 10 11  2  0
 10 12  1  0
 12 13  1  0
 13 14  2  0
 14 15  1  0
 15 16  2  0
 16 17  1  0
 17 18  2  0
 18 19  1  0
 19 20  1  0
 20 21  1  0
 21 22  1  0
 22 23  1  0
 23 24  1  0
 24 25  1  0
 25 26  2  0
 26 27  1  0
 27 28  2  0
 28 29  1  0
 29 30  2  0
 24 31  1  0
 31 32  2  0
 31 33  2  0
  9  4  1  0
 20 12  2  0
 31 21  1  0
 19 15  1  0
 30 25  1  0
  1 34  1  0
  1 35  1  0
  1 36  1  0
  3 37  1  0
  3 38  1  0
  5 39  1  0
  6 40  1  0
  7 41  1  0
  8 42  1  0
  9 43  1  0
 13 44  1  0
 14 45  1  0
 18 46  1  0
 22 47  1  0
 22 48  1  0
 23 49  1  0
 23 50  1  0
 24 51  1  0
 26 52  1  0
 27 53  1  0
 28 54  1  0
 29 55  1  0
 30 56  1  0
M  END
>  <Energy>  (478) 
154.62982241751283

>  <compound_id>  (478) 
3873

>  <target_id>  (478) 
1

>  <reference_id>  (478) 
145

>  <inspiration_ids>  (478) 
[145, 40]

>  <energy_score>  (478) 
13.180666227364554

>  <distance_score>  (478) 
2.0882062877291068

>  <path>  (478) 
/opt/xchem-fragalysis-2/maxwin/BulkDock/SCRATCH/505735/C3873-P145/C3873-P145.minimised.mol

>  <scratch_subdir>  (478) 
/opt/xchem-fragalysis-2/maxwin/BulkDock/SCRATCH/505735/C3873-P145

>  <fragmenstein_runtime>  (478) 
28.579899549484253

>  <fragmenstein_outcome>  (478) 
too moved

>  <fragmenstein_mode>  (478) 
expansion

>  <fragmenstein_error>  (478) 


$$$$
C3873-P40
     RDKit          3D

 56 60  0  0  0  0  0  0  0  0999 V2000
    3.6847   -4.5390   33.6088 C   0  0  0  0  0  0  0  0  0  0  0  0
    2.9789   -4.0629   32.3675 N   0  0  0  0  0  0  0  0  0  0  0  0
    4.1897   -3.1972   32.2694 C   0  0  0  0  0  0  0  0  0  0  0  0
    4.1364   -2.8805   30.7555 C   0  0  0  0  0  0  0  0  0  0  0  0
    3.3134   -1.8514   30.2736 C   0  0  0  0  0  0  0  0  0  0  0  0
    3.0822   -1.7154   28.9038 C   0  0  0  0  0  0  0  0  0  0  0  0
    3.6698   -2.6013   28.0012 C   0  0  0  0  0  0  0  0  0  0  0  0
    4.4868   -3.6301   28.4629 C   0  0  0  0  0  0  0  0  0  0  0  0
    4.7151   -3.7739   29.8328 C   0  0  0  0  0  0  0  0  0  0  0  0
    1.6267   -3.7379   32.6675 C   0  0  0  0  0  0  0  0  0  0  0  0
    1.1306   -2.7017   33.0071 O   0  0  0  0  0  0  0  0  0  0  0  0
    0.8028   -4.9577   32.3719 C   0  0  0  0  0  0  0  0  0  0  0  0
    0.8550   -5.1807   30.9024 C   0  0  0  0  0  0  0  0  0  0  0  0
    0.2907   -6.2209   30.2905 C   0  0  0  0  0  0  0  0  0  0  0  0
   -0.4576   -7.1179   31.0612 C   0  0  0  0  0  0  0  0  0  0  0  0
   -1.1512   -8.1667   30.6987 N   0  0  0  0  0  0  0  0  0  0  0  0
   -1.7688   -8.6429   31.8131 N   0  0  0  0  0  0  0  0  0  0  0  0
   -1.4177   -7.8819   32.8281 C   0  0  0  0  0  0  0  0  0  0  0  0
   -0.5578   -6.8953   32.4328 N   0  0  0  0  0  0  0  0  0  0  0  0
    0.0743   -5.8222   33.1210 C   0  0  0  0  0  0  0  0  0  0  0  0
   -0.0328   -5.6616   34.5471 N   0  0  0  0  0  0  0  0  0  0  0  0
   -0.1212   -4.4136   35.3327 C   0  0  0  0  0  0  0  0  0  0  0  0
    0.9357   -4.5458   36.4396 C   0  0  0  0  0  0  0  0  0  0  0  0
    0.7231   -5.9471   37.0073 C   0  0  0  0  0  0  0  0  0  0  0  0
    1.7431   -6.5934   37.9045 C   0  0  0  0  0  0  0  0  0  0  0  0
    3.1187   -6.3559   37.8025 C   0  0  0  0  0  0  0  0  0  0  0  0
    4.0167   -7.0152   38.6477 C   0  0  0  0  0  0  0  0  0  0  0  0
    3.5546   -7.9167   39.6045 C   0  0  0  0  0  0  0  0  0  0  0  0
    2.1918   -8.1650   39.7186 C   0  0  0  0  0  0  0  0  0  0  0  0
    1.2948   -7.5110   38.8744 C   0  0  0  0  0  0  0  0  0  0  0  0
    0.4562   -6.9726   35.5491 S   0  0  0  0  0  0  0  0  0  0  0  0
    1.6838   -7.5013   34.9878 O   0  0  0  0  0  0  0  0  0  0  0  0
   -0.7065   -7.7899   35.8066 O   0  0  0  0  0  0  0  0  0  0  0  0
    3.0251   -5.2905   34.0616 H   0  0  0  0  0  0  0  0  0  0  0  0
    3.7801   -3.7692   34.3918 H   0  0  0  0  0  0  0  0  0  0  0  0
    4.6107   -5.1037   33.4282 H   0  0  0  0  0  0  0  0  0  0  0  0
    5.1999   -3.6173   32.4057 H   0  0  0  0  0  0  0  0  0  0  0  0
    4.0637   -2.2565   32.8245 H   0  0  0  0  0  0  0  0  0  0  0  0
    2.8083   -1.1805   30.9666 H   0  0  0  0  0  0  0  0  0  0  0  0
    2.4337   -0.9210   28.5399 H   0  0  0  0  0  0  0  0  0  0  0  0
    3.4947   -2.4804   26.9365 H   0  0  0  0  0  0  0  0  0  0  0  0
    4.9459   -4.3189   27.7585 H   0  0  0  0  0  0  0  0  0  0  0  0
    5.3250   -4.6037   30.1827 H   0  0  0  0  0  0  0  0  0  0  0  0
    1.4071   -4.4584   30.2992 H   0  0  0  0  0  0  0  0  0  0  0  0
    0.3878   -6.3665   29.2250 H   0  0  0  0  0  0  0  0  0  0  0  0
   -1.7854   -8.0007   33.8323 H   0  0  0  0  0  0  0  0  0  0  0  0
    0.0131   -3.5026   34.7631 H   0  0  0  0  0  0  0  0  0  0  0  0
   -1.1232   -4.3611   35.7756 H   0  0  0  0  0  0  0  0  0  0  0  0
    0.8149   -3.7755   37.2076 H   0  0  0  0  0  0  0  0  0  0  0  0
    1.9336   -4.4315   36.0067 H   0  0  0  0  0  0  0  0  0  0  0  0
   -0.2421   -5.9301   37.5344 H   0  0  0  0  0  0  0  0  0  0  0  0
    3.5211   -5.6706   37.0621 H   0  0  0  0  0  0  0  0  0  0  0  0
    5.0843   -6.8273   38.5585 H   0  0  0  0  0  0  0  0  0  0  0  0
    4.2578   -8.4270   40.2579 H   0  0  0  0  0  0  0  0  0  0  0  0
    1.8266   -8.8719   40.4598 H   0  0  0  0  0  0  0  0  0  0  0  0
    0.2340   -7.7352   38.9797 H   0  0  0  0  0  0  0  0  0  0  0  0
  1  2  1  0
  2  3  1  0
  3  4  1  0
  4  5  2  0
  5  6  1  0
  6  7  2  0
  7  8  1  0
  8  9  2  0
  2 10  1  0
 10 11  2  0
 10 12  1  0
 12 13  1  0
 13 14  2  0
 14 15  1  0
 15 16  2  0
 16 17  1  0
 17 18  2  0
 18 19  1  0
 19 20  1  0
 20 21  1  0
 21 22  1  0
 22 23  1  0
 23 24  1  0
 24 25  1  0
 25 26  2  0
 26 27  1  0
 27 28  2  0
 28 29  1  0
 29 30  2  0
 24 31  1  0
 31 32  2  0
 31 33  2  0
  9  4  1  0
 20 12  2  0
 31 21  1  0
 19 15  1  0
 30 25  1  0
  1 34  1  0
  1 35  1  0
  1 36  1  0
  3 37  1  0
  3 38  1  0
  5 39  1  0
  6 40  1  0
  7 41  1  0
  8 42  1  0
  9 43  1  0
 13 44  1  0
 14 45  1  0
 18 46  1  0
 22 47  1  0
 22 48  1  0
 23 49  1  0
 23 50  1  0
 24 51  1  0
 26 52  1  0
 27 53  1  0
 28 54  1  0
 29 55  1  0
 30 56  1  0
M  END
>  <Energy>  (479) 
151.98472223930963

>  <compound_id>  (479) 
3873

>  <target_id>  (479) 
1

>  <reference_id>  (479) 
40

>  <inspiration_ids>  (479) 
[145, 40]

>  <energy_score>  (479) 
10.535566049161787

>  <distance_score>  (479) 
2.085214219697523

>  <path>  (479) 
/opt/xchem-fragalysis-2/maxwin/BulkDock/SCRATCH/505735/C3873-P40/C3873-P40.minimised.mol

>  <scratch_subdir>  (479) 
/opt/xchem-fragalysis-2/maxwin/BulkDock/SCRATCH/505735/C3873-P40

>  <fragmenstein_runtime>  (479) 
28.33390998840332

>  <fragmenstein_outcome>  (479) 
too moved

>  <fragmenstein_mode>  (479) 
expansion

>  <fragmenstein_error>  (479) 


$$$$
C3873-P145
     RDKit          2D

  0  0  0  0  0  0  0  0  0  0999 V2000
M  END
>  <compound_id>  (480) 
3873

>  <target_id>  (480) 
1

>  <reference_id>  (480) 
145

>  <inspiration_ids>  (480) 
[145, 41]

>  <energy_score>  (480) 
nan

>  <distance_score>  (480) 
nan

>  <path>  (480) 
/opt/xchem-fragalysis-2/maxwin/BulkDock/SCRATCH/505735/C3873-P145/C3873-P145.minimised.mol

>  <scratch_subdir>  (480) 
/opt/xchem-fragalysis-2/maxwin/BulkDock/SCRATCH/505735/C3873-P145

>  <fragmenstein_runtime>  (480) 
0.4332408905029297

>  <fragmenstein_outcome>  (480) 
too distant

>  <fragmenstein_mode>  (480) 
expansion

>  <fragmenstein_error>  (480) 
DistanceError: hit0+hit1

$$$$
C4117-P145
     RDKit          3D

 62 66  0  0  0  0  0  0  0  0999 V2000
    5.0879   -4.3362   37.5625 C   0  0  0  0  0  0  0  0  0  0  0  0
    4.1022   -3.7298   36.7173 N   0  0  0  0  0  0  0  0  0  0  0  0
    3.7467   -2.2387   36.4967 C   0  0  0  0  0  0  0  0  0  0  0  0
    4.1487   -1.2790   37.0260 O   0  0  0  0  0  0  0  0  0  0  0  0
    2.6545   -2.1375   35.4111 C   0  0  0  0  0  0  0  0  0  0  0  0
    3.1047   -2.6299   34.0309 C   0  0  0  0  0  0  0  0  0  0  0  0
    2.5037   -3.9596   33.5804 C   0  0  0  0  0  0  0  0  0  0  0  0
    0.9375   -4.0535   33.6351 C   0  0  0  0  0  0  0  0  0  0  0  0
    0.3282   -3.6887   32.2320 C   0  0  0  0  0  0  0  0  0  0  0  0
    0.2703   -4.8351   31.2172 C   0  0  0  0  0  0  0  0  0  0  0  0
   -0.4470   -5.9899   31.8009 C   0  0  0  0  0  0  0  0  0  0  0  0
   -1.1219   -6.9337   31.1865 N   0  0  0  0  0  0  0  0  0  0  0  0
   -1.6040   -7.7818   32.1482 N   0  0  0  0  0  0  0  0  0  0  0  0
   -1.1825   -7.3648   33.3212 C   0  0  0  0  0  0  0  0  0  0  0  0
   -1.4031   -7.9788   34.5032 N   0  0  0  0  0  0  0  0  0  0  0  0
   -0.4349   -6.2268   33.1595 N   0  0  0  0  0  0  0  0  0  0  0  0
    0.5723   -5.5663   34.0006 C   0  0  0  0  0  0  0  0  0  0  0  0
    0.6262   -5.7686   35.4533 N   0  0  0  0  0  0  0  0  0  0  0  0
   -0.5045   -5.5170   36.3479 C   0  0  0  0  0  0  0  0  0  0  0  0
    0.0613   -5.7921   37.7474 C   0  0  0  0  0  0  0  0  0  0  0  0
    0.8118   -7.1186   37.6264 C   0  0  0  0  0  0  0  0  0  0  0  0
    1.7045   -7.5411   38.7574 C   0  0  0  0  0  0  0  0  0  0  0  0
    2.8900   -8.2723   38.5812 C   0  0  0  0  0  0  0  0  0  0  0  0
    3.5835   -8.7913   39.6745 C   0  0  0  0  0  0  0  0  0  0  0  0
    3.0935   -8.6079   40.9613 C   0  0  0  0  0  0  0  0  0  0  0  0
    1.9193   -7.8922   41.1594 C   0  0  0  0  0  0  0  0  0  0  0  0
    1.2328   -7.3622   40.0696 C   0  0  0  0  0  0  0  0  0  0  0  0
    1.5939   -7.0212   36.0258 S   0  0  0  0  0  0  0  0  0  0  0  0
    2.9433   -6.5199   36.0095 O   0  0  0  0  0  0  0  0  0  0  0  0
    1.2290   -8.1854   35.2559 O   0  0  0  0  0  0  0  0  0  0  0  0
    0.4169   -2.9752   34.6482 C   0  0  0  0  0  0  0  0  0  0  0  0
    1.3227   -2.7337   35.8615 C   0  0  0  0  0  0  0  0  0  0  0  0
    4.5787   -4.9855   38.2781 H   0  0  0  0  0  0  0  0  0  0  0  0
    5.6467   -3.5600   38.0895 H   0  0  0  0  0  0  0  0  0  0  0  0
    5.7607   -4.9303   36.9405 H   0  0  0  0  0  0  0  0  0  0  0  0
    3.5036   -4.3093   36.1413 H   0  0  0  0  0  0  0  0  0  0  0  0
    2.4914   -1.0543   35.2959 H   0  0  0  0  0  0  0  0  0  0  0  0
    4.1988   -2.6933   33.9825 H   0  0  0  0  0  0  0  0  0  0  0  0
    2.8218   -1.8724   33.2871 H   0  0  0  0  0  0  0  0  0  0  0  0
    2.8497   -4.1675   32.5611 H   0  0  0  0  0  0  0  0  0  0  0  0
    2.9590   -4.7386   34.1957 H   0  0  0  0  0  0  0  0  0  0  0  0
    0.8743   -2.8439   31.7939 H   0  0  0  0  0  0  0  0  0  0  0  0
   -0.7028   -3.3362   32.3835 H   0  0  0  0  0  0  0  0  0  0  0  0
    1.2758   -5.1310   30.9145 H   0  0  0  0  0  0  0  0  0  0  0  0
   -0.2505   -4.4946   30.3153 H   0  0  0  0  0  0  0  0  0  0  0  0
   -1.8748   -8.8814   34.3625 H   0  0  0  0  0  0  0  0  0  0  0  0
   -0.5273   -8.2663   34.9495 H   0  0  0  0  0  0  0  0  0  0  0  0
    1.4486   -6.1200   33.6222 H   0  0  0  0  0  0  0  0  0  0  0  0
   -0.8831   -4.5009   36.3272 H   0  0  0  0  0  0  0  0  0  0  0  0
   -1.3312   -6.1824   36.1227 H   0  0  0  0  0  0  0  0  0  0  0  0
   -0.7371   -5.8291   38.4929 H   0  0  0  0  0  0  0  0  0  0  0  0
    0.7499   -4.9936   38.0484 H   0  0  0  0  0  0  0  0  0  0  0  0
    0.0708   -7.9174   37.5079 H   0  0  0  0  0  0  0  0  0  0  0  0
    3.2938   -8.5005   37.5987 H   0  0  0  0  0  0  0  0  0  0  0  0
    4.4928   -9.3666   39.5195 H   0  0  0  0  0  0  0  0  0  0  0  0
    3.6219   -9.0329   41.8107 H   0  0  0  0  0  0  0  0  0  0  0  0
    1.5297   -7.7614   42.1659 H   0  0  0  0  0  0  0  0  0  0  0  0
    0.2976   -6.8442   40.2706 H   0  0  0  0  0  0  0  0  0  0  0  0
   -0.6167   -3.1802   34.9322 H   0  0  0  0  0  0  0  0  0  0  0  0
    0.3459   -2.0113   34.1209 H   0  0  0  0  0  0  0  0  0  0  0  0
    0.8299   -2.0331   36.5471 H   0  0  0  0  0  0  0  0  0  0  0  0
    1.4813   -3.6431   36.4355 H   0  0  0  0  0  0  0  0  0  0  0  0
  1  2  1  0
  2  3  1  0
  3  4  2  0
  3  5  1  0
  5  6  1  0
  6  7  1  0
  7  8  1  0
  8  9  1  0
  9 10  1  0
 10 11  1  0
 11 12  2  0
 12 13  1  0
 13 14  2  0
 14 15  1  0
 14 16  1  0
 16 17  1  0
 17 18  1  0
 18 19  1  0
 19 20  1  0
 20 21  1  0
 21 22  1  0
 22 23  2  0
 23 24  1  0
 24 25  2  0
 25 26  1  0
 26 27  2  0
 21 28  1  0
 28 29  2  0
 28 30  2  0
  8 31  1  0
 31 32  1  0
 32  5  1  0
 17  8  1  0
 28 18  1  0
 16 11  1  0
 27 22  1  0
  1 33  1  0
  1 34  1  0
  1 35  1  0
  2 36  1  0
  5 37  1  0
  6 38  1  0
  6 39  1  0
  7 40  1  0
  7 41  1  0
  9 42  1  0
  9 43  1  0
 10 44  1  0
 10 45  1  0
 15 46  1  0
 15 47  1  0
 17 48  1  0
 19 49  1  0
 19 50  1  0
 20 51  1  0
 20 52  1  0
 21 53  1  0
 23 54  1  0
 24 55  1  0
 25 56  1  0
 26 57  1  0
 27 58  1  0
 31 59  1  0
 31 60  1  0
 32 61  1  0
 32 62  1  0
M  END
>  <Energy>  (481) 
13.104092426270197

>  <compound_id>  (481) 
4117

>  <target_id>  (481) 
1

>  <reference_id>  (481) 
145

>  <inspiration_ids>  (481) 
[145, 56]

>  <energy_score>  (481) 
-47.32187131896997

>  <distance_score>  (481) 
1.6938303972404398

>  <path>  (481) 
/opt/xchem-fragalysis-2/maxwin/BulkDock/SCRATCH/505735/C4117-P145/C4117-P145.minimised.mol

>  <scratch_subdir>  (481) 
/opt/xchem-fragalysis-2/maxwin/BulkDock/SCRATCH/505735/C4117-P145

>  <fragmenstein_runtime>  (481) 
6.84715723991394

>  <fragmenstein_outcome>  (481) 
too moved

>  <fragmenstein_mode>  (481) 
expansion

>  <fragmenstein_error>  (481) 


$$$$
C4117-P56
     RDKit          3D

 62 66  0  0  0  0  0  0  0  0999 V2000
    6.5719   -3.2281   37.0651 C   0  0  0  0  0  0  0  0  0  0  0  0
    5.4179   -3.2566   36.2172 N   0  0  0  0  0  0  0  0  0  0  0  0
    4.9262   -2.3054   35.2707 C   0  0  0  0  0  0  0  0  0  0  0  0
    5.3946   -1.2722   34.8840 O   0  0  0  0  0  0  0  0  0  0  0  0
    3.6077   -2.7665   34.6179 C   0  0  0  0  0  0  0  0  0  0  0  0
    3.7943   -4.0090   33.7424 C   0  0  0  0  0  0  0  0  0  0  0  0
    2.5149   -4.8279   33.5274 C   0  0  0  0  0  0  0  0  0  0  0  0
    1.1946   -4.0110   33.5531 C   0  0  0  0  0  0  0  0  0  0  0  0
    1.2795   -2.9524   32.3440 C   0  0  0  0  0  0  0  0  0  0  0  0
   -0.0252   -2.7861   31.5555 C   0  0  0  0  0  0  0  0  0  0  0  0
   -0.3419   -4.1286   31.0482 C   0  0  0  0  0  0  0  0  0  0  0  0
   -0.4323   -4.5580   29.8137 N   0  0  0  0  0  0  0  0  0  0  0  0
   -0.3143   -5.9263   29.8553 N   0  0  0  0  0  0  0  0  0  0  0  0
   -0.0914   -6.2707   31.1003 C   0  0  0  0  0  0  0  0  0  0  0  0
    0.3414   -7.4607   31.5380 N   0  0  0  0  0  0  0  0  0  0  0  0
   -0.2632   -5.1918   31.9069 N   0  0  0  0  0  0  0  0  0  0  0  0
   -0.0900   -4.9846   33.3562 C   0  0  0  0  0  0  0  0  0  0  0  0
   -0.1666   -6.2682   34.1817 N   0  0  0  0  0  0  0  0  0  0  0  0
   -1.3667   -7.1243   33.9364 C   0  0  0  0  0  0  0  0  0  0  0  0
   -1.3474   -8.2491   34.9696 C   0  0  0  0  0  0  0  0  0  0  0  0
   -0.8410   -7.6644   36.2719 C   0  0  0  0  0  0  0  0  0  0  0  0
   -0.0078   -8.4648   37.2383 C   0  0  0  0  0  0  0  0  0  0  0  0
    2.0012   -8.2211   37.2151 C   0  0  0  0  0  0  0  0  0  0  0  0
    3.4050   -8.1159   38.8390 C   0  0  0  0  0  0  0  0  0  0  0  0
    2.3708   -8.0941   40.6907 C   0  0  0  0  0  0  0  0  0  0  0  0
    0.5405   -8.5873   40.6360 C   0  0  0  0  0  0  0  0  0  0  0  0
   -0.4511   -8.8066   39.0541 C   0  0  0  0  0  0  0  0  0  0  0  0
   -0.1489   -6.0550   35.8691 S   0  0  0  0  0  0  0  0  0  0  0  0
   -1.1512   -5.0763   36.2170 O   0  0  0  0  0  0  0  0  0  0  0  0
    1.2314   -5.8797   36.2088 O   0  0  0  0  0  0  0  0  0  0  0  0
    1.1110   -3.1284   34.8497 C   0  0  0  0  0  0  0  0  0  0  0  0
    2.4440   -2.9229   35.5904 C   0  0  0  0  0  0  0  0  0  0  0  0
    6.2563   -2.9491   38.0730 H   0  0  0  0  0  0  0  0  0  0  0  0
    7.0251   -4.2215   37.0775 H   0  0  0  0  0  0  0  0  0  0  0  0
    7.2847   -2.4898   36.6901 H   0  0  0  0  0  0  0  0  0  0  0  0
    4.7097   -3.9799   36.3608 H   0  0  0  0  0  0  0  0  0  0  0  0
    3.3421   -1.9355   33.9499 H   0  0  0  0  0  0  0  0  0  0  0  0
    4.5656   -4.6767   34.1450 H   0  0  0  0  0  0  0  0  0  0  0  0
    4.1850   -3.6865   32.7682 H   0  0  0  0  0  0  0  0  0  0  0  0
    2.6067   -5.3618   32.5733 H   0  0  0  0  0  0  0  0  0  0  0  0
    2.4981   -5.6082   34.2891 H   0  0  0  0  0  0  0  0  0  0  0  0
    2.0570   -3.2735   31.6355 H   0  0  0  0  0  0  0  0  0  0  0  0
    1.5954   -1.9615   32.6869 H   0  0  0  0  0  0  0  0  0  0  0  0
    0.1208   -2.0833   30.7288 H   0  0  0  0  0  0  0  0  0  0  0  0
   -0.8274   -2.3992   32.1922 H   0  0  0  0  0  0  0  0  0  0  0  0
    0.8158   -7.9539   30.7681 H   0  0  0  0  0  0  0  0  0  0  0  0
    1.0116   -7.4116   32.3147 H   0  0  0  0  0  0  0  0  0  0  0  0
   -0.9690   -4.3907   33.6278 H   0  0  0  0  0  0  0  0  0  0  0  0
   -2.2597   -6.5439   34.0805 H   0  0  0  0  0  0  0  0  0  0  0  0
   -1.4448   -7.5641   32.9483 H   0  0  0  0  0  0  0  0  0  0  0  0
   -2.3594   -8.6539   35.0986 H   0  0  0  0  0  0  0  0  0  0  0  0
   -0.7655   -9.0856   34.6036 H   0  0  0  0  0  0  0  0  0  0  0  0
   -1.7057   -7.3625   36.8264 H   0  0  0  0  0  0  0  0  0  0  0  0
    2.4369   -8.0548   36.1551 H   0  0  0  0  0  0  0  0  0  0  0  0
    4.5111   -8.1740   38.7424 H   0  0  0  0  0  0  0  0  0  0  0  0
    2.9240   -8.2767   41.6386 H   0  0  0  0  0  0  0  0  0  0  0  0
    0.0673   -8.8769   41.5774 H   0  0  0  0  0  0  0  0  0  0  0  0
   -1.3874   -9.3308   39.2649 H   0  0  0  0  0  0  0  0  0  0  0  0
    0.3859   -3.4941   35.5672 H   0  0  0  0  0  0  0  0  0  0  0  0
    0.7083   -2.1385   34.5950 H   0  0  0  0  0  0  0  0  0  0  0  0
    2.3661   -2.0400   36.2365 H   0  0  0  0  0  0  0  0  0  0  0  0
    2.6204   -3.7679   36.2624 H   0  0  0  0  0  0  0  0  0  0  0  0
  1  2  1  0
  2  3  1  0
  3  4  2  0
  3  5  1  0
  5  6  1  0
  6  7  1  0
  7  8  1  0
  8  9  1  0
  9 10  1  0
 10 11  1  0
 11 12  2  0
 12 13  1  0
 13 14  2  0
 14 15  1  0
 14 16  1  0
 16 17  1  0
 17 18  1  0
 18 19  1  0
 19 20  1  0
 20 21  1  0
 21 22  1  0
 22 23  2  0
 23 24  1  0
 24 25  2  0
 25 26  1  0
 26 27  2  0
 21 28  1  0
 28 29  2  0
 28 30  2  0
  8 31  1  0
 31 32  1  0
 32  5  1  0
 17  8  1  0
 28 18  1  0
 16 11  1  0
 27 22  1  0
  1 33  1  0
  1 34  1  0
  1 35  1  0
  2 36  1  0
  5 37  1  0
  6 38  1  0
  6 39  1  0
  7 40  1  0
  7 41  1  0
  9 42  1  0
  9 43  1  0
 10 44  1  0
 10 45  1  0
 15 46  1  0
 15 47  1  0
 17 48  1  0
 19 49  1  0
 19 50  1  0
 20 51  1  0
 20 52  1  0
 21 53  1  0
 23 54  1  0
 24 55  1  0
 25 56  1  0
 26 57  1  0
 27 58  1  0
 31 59  1  0
 31 60  1  0
 32 61  1  0
 32 62  1  0
M  END
>  <Energy>  (482) 
733.34166597640524

>  <compound_id>  (482) 
4117

>  <target_id>  (482) 
1

>  <reference_id>  (482) 
56

>  <inspiration_ids>  (482) 
[145, 56]

>  <energy_score>  (482) 
624.0546962359682

>  <distance_score>  (482) 
2.7674534373967132

>  <path>  (482) 
/opt/xchem-fragalysis-2/maxwin/BulkDock/SCRATCH/505735/C4117-P56/C4117-P56.minimised.mol

>  <scratch_subdir>  (482) 
/opt/xchem-fragalysis-2/maxwin/BulkDock/SCRATCH/505735/C4117-P56

>  <fragmenstein_runtime>  (482) 
9.885645151138306

>  <fragmenstein_outcome>  (482) 
too moved

>  <fragmenstein_mode>  (482) 
expansion

>  <fragmenstein_error>  (482) 


$$$$
C4047-P145
     RDKit          3D

 67 72  0  0  0  0  0  0  0  0999 V2000
    2.2979   -3.3225   33.4803 O   0  0  0  0  0  0  0  0  0  0  0  0
    1.3891   -3.4277   32.7437 C   0  0  0  0  0  0  0  0  0  0  0  0
    0.6536   -4.7166   32.4532 C   0  0  0  0  0  0  0  0  0  0  0  0
    0.5435   -4.9672   30.9980 C   0  0  0  0  0  0  0  0  0  0  0  0
   -0.1003   -6.0145   30.4834 C   0  0  0  0  0  0  0  0  0  0  0  0
   -0.6896   -6.9406   31.3505 C   0  0  0  0  0  0  0  0  0  0  0  0
   -1.3882   -8.0155   31.0958 N   0  0  0  0  0  0  0  0  0  0  0  0
   -1.7991   -8.5185   32.2898 N   0  0  0  0  0  0  0  0  0  0  0  0
   -1.3307   -7.7444   33.2420 C   0  0  0  0  0  0  0  0  0  0  0  0
   -0.5626   -6.7403   32.7167 N   0  0  0  0  0  0  0  0  0  0  0  0
    0.1453   -5.6563   33.2981 C   0  0  0  0  0  0  0  0  0  0  0  0
    0.2980   -5.5657   34.7248 N   0  0  0  0  0  0  0  0  0  0  0  0
    0.2657   -4.3692   35.5898 C   0  0  0  0  0  0  0  0  0  0  0  0
    0.5435   -4.8523   37.0244 C   0  0  0  0  0  0  0  0  0  0  0  0
    1.6229   -5.9376   36.9030 C   0  0  0  0  0  0  0  0  0  0  0  0
    1.8870   -6.8579   38.0704 C   0  0  0  0  0  0  0  0  0  0  0  0
    3.0900   -7.5876   38.0969 C   0  0  0  0  0  0  0  0  0  0  0  0
    3.3447   -8.5178   39.1062 C   0  0  0  0  0  0  0  0  0  0  0  0
    2.4028   -8.7347   40.1062 C   0  0  0  0  0  0  0  0  0  0  0  0
    1.2144   -8.0108   40.1061 C   0  0  0  0  0  0  0  0  0  0  0  0
    0.9589   -7.0754   39.1001 C   0  0  0  0  0  0  0  0  0  0  0  0
    0.9817   -6.9256   35.5377 S   0  0  0  0  0  0  0  0  0  0  0  0
    2.0279   -7.4754   34.6997 O   0  0  0  0  0  0  0  0  0  0  0  0
   -0.1209   -7.7382   36.0005 O   0  0  0  0  0  0  0  0  0  0  0  0
    0.7507   -2.4035   31.8126 N   0  0  0  0  0  0  0  0  0  0  0  0
    1.1566   -0.9877   31.4847 C   0  0  0  0  0  0  0  0  0  0  0  0
    0.4172   -0.4136   30.2562 C   0  0  0  0  0  0  0  0  0  0  0  0
   -0.9926   -0.0385   30.6672 C   0  0  0  0  0  0  0  0  0  0  0  0
   -1.5157   -1.1209   31.6094 C   0  0  0  0  0  0  0  0  0  0  0  0
   -2.6618   -0.6723   32.5055 C   0  0  0  0  0  0  0  0  0  0  0  0
   -3.8299   -1.4416   32.5726 C   0  0  0  0  0  0  0  0  0  0  0  0
   -4.8753   -1.0914   33.4305 C   0  0  0  0  0  0  0  0  0  0  0  0
   -4.7756    0.0327   34.2570 C   0  0  0  0  0  0  0  0  0  0  0  0
   -5.8794    0.3803   35.2229 C   0  0  0  0  0  0  0  0  0  0  0  0
   -7.1640    0.1790   34.6514 O   0  0  0  0  0  0  0  0  0  0  0  0
   -3.5939    0.7822   34.2265 C   0  0  0  0  0  0  0  0  0  0  0  0
   -2.5504    0.4349   33.3604 C   0  0  0  0  0  0  0  0  0  0  0  0
   -0.3658   -1.6481   32.5104 C   0  0  0  0  0  0  0  0  0  0  0  0
    1.0185   -4.2682   30.3109 H   0  0  0  0  0  0  0  0  0  0  0  0
   -0.1897   -6.1597   29.4182 H   0  0  0  0  0  0  0  0  0  0  0  0
   -1.5562   -7.8693   34.2871 H   0  0  0  0  0  0  0  0  0  0  0  0
    1.0333   -3.6461   35.3289 H   0  0  0  0  0  0  0  0  0  0  0  0
   -0.7124   -3.8826   35.5352 H   0  0  0  0  0  0  0  0  0  0  0  0
   -0.3914   -5.2540   37.4326 H   0  0  0  0  0  0  0  0  0  0  0  0
    0.8598   -4.0305   37.6747 H   0  0  0  0  0  0  0  0  0  0  0  0
    2.5598   -5.4818   36.5589 H   0  0  0  0  0  0  0  0  0  0  0  0
    3.8354   -7.4588   37.3133 H   0  0  0  0  0  0  0  0  0  0  0  0
    4.2676   -9.0917   39.1007 H   0  0  0  0  0  0  0  0  0  0  0  0
    2.5815   -9.4842   40.8733 H   0  0  0  0  0  0  0  0  0  0  0  0
    0.4726   -8.1970   40.8789 H   0  0  0  0  0  0  0  0  0  0  0  0
    0.0049   -6.5563   39.1290 H   0  0  0  0  0  0  0  0  0  0  0  0
    2.1867   -1.1477   31.1271 H   0  0  0  0  0  0  0  0  0  0  0  0
    1.3505   -0.2836   32.3123 H   0  0  0  0  0  0  0  0  0  0  0  0
    0.3892   -1.1631   29.4558 H   0  0  0  0  0  0  0  0  0  0  0  0
    0.9442    0.4646   29.8681 H   0  0  0  0  0  0  0  0  0  0  0  0
   -0.9566    0.9380   31.1636 H   0  0  0  0  0  0  0  0  0  0  0  0
   -1.6460    0.0808   29.7957 H   0  0  0  0  0  0  0  0  0  0  0  0
   -1.8572   -1.9587   30.9845 H   0  0  0  0  0  0  0  0  0  0  0  0
   -3.9427   -2.3342   31.9612 H   0  0  0  0  0  0  0  0  0  0  0  0
   -5.7713   -1.7106   33.4578 H   0  0  0  0  0  0  0  0  0  0  0  0
   -5.8148    1.4299   35.5282 H   0  0  0  0  0  0  0  0  0  0  0  0
   -5.7954   -0.2444   36.1179 H   0  0  0  0  0  0  0  0  0  0  0  0
   -7.1615    0.6510   33.7878 H   0  0  0  0  0  0  0  0  0  0  0  0
   -3.4714    1.6364   34.8897 H   0  0  0  0  0  0  0  0  0  0  0  0
   -1.6404    1.0308   33.3815 H   0  0  0  0  0  0  0  0  0  0  0  0
   -0.0521   -0.9899   33.3421 H   0  0  0  0  0  0  0  0  0  0  0  0
   -0.8508   -2.4456   33.1008 H   0  0  0  0  0  0  0  0  0  0  0  0
  1  2  2  0
  2  3  1  0
  3  4  1  0
  4  5  2  0
  5  6  1  0
  6  7  2  0
  7  8  1  0
  8  9  2  0
  9 10  1  0
 10 11  1  0
 11 12  1  0
 12 13  1  0
 13 14  1  0
 14 15  1  0
 15 16  1  0
 16 17  2  0
 17 18  1  0
 18 19  2  0
 19 20  1  0
 20 21  2  0
 15 22  1  0
 22 23  2  0
 22 24  2  0
  2 25  1  0
 25 26  1  0
 26 27  1  0
 27 28  1  0
 28 29  1  0
 29 30  1  0
 30 31  2  0
 31 32  1  0
 32 33  2  0
 33 34  1  0
 34 35  1  0
 33 36  1  0
 36 37  2  0
 29 38  1  0
 11  3  2  0
 22 12  1  0
 38 25  1  0
 10  6  1  0
 21 16  1  0
 37 30  1  0
  4 39  1  0
  5 40  1  0
  9 41  1  0
 13 42  1  0
 13 43  1  0
 14 44  1  0
 14 45  1  0
 15 46  1  0
 17 47  1  0
 18 48  1  0
 19 49  1  0
 20 50  1  0
 21 51  1  0
 26 52  1  0
 26 53  1  0
 27 54  1  0
 27 55  1  0
 28 56  1  0
 28 57  1  0
 29 58  1  0
 31 59  1  0
 32 60  1  0
 34 61  1  0
 34 62  1  0
 35 63  1  0
 36 64  1  0
 37 65  1  0
 38 66  1  0
 38 67  1  0
M  END
>  <Energy>  (483) 
181.2231502228002

>  <compound_id>  (483) 
4047

>  <target_id>  (483) 
1

>  <reference_id>  (483) 
145

>  <inspiration_ids>  (483) 
[145, 59]

>  <energy_score>  (483) 
22.616328680223774

>  <distance_score>  (483) 
1.2718561803662025

>  <path>  (483) 
/opt/xchem-fragalysis-2/maxwin/BulkDock/SCRATCH/505735/C4047-P145/C4047-P145.minimised.mol

>  <scratch_subdir>  (483) 
/opt/xchem-fragalysis-2/maxwin/BulkDock/SCRATCH/505735/C4047-P145

>  <fragmenstein_runtime>  (483) 
11.318464756011963

>  <fragmenstein_outcome>  (483) 
too moved

>  <fragmenstein_mode>  (483) 
expansion

>  <fragmenstein_error>  (483) 


$$$$
C4047-P59
     RDKit          3D

 67 72  0  0  0  0  0  0  0  0999 V2000
   -0.4773   -1.6605   33.1855 O   0  0  0  0  0  0  0  0  0  0  0  0
   -0.1387   -2.0114   32.0910 C   0  0  0  0  0  0  0  0  0  0  0  0
    0.0545   -3.5526   31.8260 C   0  0  0  0  0  0  0  0  0  0  0  0
    0.7129   -3.8533   30.5223 C   0  0  0  0  0  0  0  0  0  0  0  0
    0.7939   -5.0733   29.9816 C   0  0  0  0  0  0  0  0  0  0  0  0
    0.1578   -6.1425   30.6286 C   0  0  0  0  0  0  0  0  0  0  0  0
   -0.1160   -7.3661   30.2385 N   0  0  0  0  0  0  0  0  0  0  0  0
   -0.8447   -7.9618   31.2292 N   0  0  0  0  0  0  0  0  0  0  0  0
   -0.9460   -7.0994   32.2152 C   0  0  0  0  0  0  0  0  0  0  0  0
   -0.2991   -5.9203   31.9141 N   0  0  0  0  0  0  0  0  0  0  0  0
   -0.1994   -4.6667   32.6066 C   0  0  0  0  0  0  0  0  0  0  0  0
   -0.3887   -4.6606   34.0648 N   0  0  0  0  0  0  0  0  0  0  0  0
   -0.3523   -3.4924   34.9844 C   0  0  0  0  0  0  0  0  0  0  0  0
   -0.2329   -4.0183   36.4242 C   0  0  0  0  0  0  0  0  0  0  0  0
    0.8422   -5.0940   36.3581 C   0  0  0  0  0  0  0  0  0  0  0  0
    1.0645   -6.0235   37.5298 C   0  0  0  0  0  0  0  0  0  0  0  0
    2.2371   -6.8042   37.5652 C   0  0  0  0  0  0  0  0  0  0  0  0
    2.4835   -7.6924   38.6148 C   0  0  0  0  0  0  0  0  0  0  0  0
    1.5643   -7.8147   39.6512 C   0  0  0  0  0  0  0  0  0  0  0  0
    0.4023   -7.0474   39.6376 C   0  0  0  0  0  0  0  0  0  0  0  0
    0.1529   -6.1581   38.5866 C   0  0  0  0  0  0  0  0  0  0  0  0
    0.3062   -6.0434   34.9288 S   0  0  0  0  0  0  0  0  0  0  0  0
    1.4596   -6.5306   34.1984 O   0  0  0  0  0  0  0  0  0  0  0  0
   -0.8047   -6.8970   35.2961 O   0  0  0  0  0  0  0  0  0  0  0  0
    0.2326   -1.2345   30.9341 N   0  0  0  0  0  0  0  0  0  0  0  0
    0.4185    0.2280   30.7710 C   0  0  0  0  0  0  0  0  0  0  0  0
    1.1858    0.5929   29.4914 C   0  0  0  0  0  0  0  0  0  0  0  0
    0.4455    0.0705   28.2751 C   0  0  0  0  0  0  0  0  0  0  0  0
   -1.0044   -0.0500   28.6988 C   0  0  0  0  0  0  0  0  0  0  0  0
   -1.9239   -0.3990   27.5492 C   0  0  0  0  0  0  0  0  0  0  0  0
   -2.4979    0.5429   26.7206 C   0  0  0  0  0  0  0  0  0  0  0  0
   -3.4896    0.1105   25.7938 C   0  0  0  0  0  0  0  0  0  0  0  0
   -4.0935   -1.4427   25.5436 C   0  0  0  0  0  0  0  0  0  0  0  0
   -6.1645   -1.7023   25.4445 C   0  0  0  0  0  0  0  0  0  0  0  0
   -6.8151   -2.4172   24.2895 O   0  0  0  0  0  0  0  0  0  0  0  0
   -3.1892   -2.1626   26.1948 C   0  0  0  0  0  0  0  0  0  0  0  0
   -2.1998   -1.7048   27.1956 C   0  0  0  0  0  0  0  0  0  0  0  0
   -1.0530   -0.9388   30.0327 C   0  0  0  0  0  0  0  0  0  0  0  0
    1.2346   -3.0534   30.0025 H   0  0  0  0  0  0  0  0  0  0  0  0
    1.3252   -5.2366   29.0527 H   0  0  0  0  0  0  0  0  0  0  0  0
   -1.5124   -7.2693   33.1157 H   0  0  0  0  0  0  0  0  0  0  0  0
    0.5339   -2.8832   34.7830 H   0  0  0  0  0  0  0  0  0  0  0  0
   -1.2783   -2.9173   34.9096 H   0  0  0  0  0  0  0  0  0  0  0  0
   -1.2019   -4.4303   36.7315 H   0  0  0  0  0  0  0  0  0  0  0  0
    0.0276   -3.2182   37.1243 H   0  0  0  0  0  0  0  0  0  0  0  0
    1.7980   -4.6257   36.0884 H   0  0  0  0  0  0  0  0  0  0  0  0
    2.9728   -6.7344   36.7647 H   0  0  0  0  0  0  0  0  0  0  0  0
    3.3906   -8.2916   38.6204 H   0  0  0  0  0  0  0  0  0  0  0  0
    1.7496   -8.5088   40.4669 H   0  0  0  0  0  0  0  0  0  0  0  0
   -0.3177   -7.1434   40.4472 H   0  0  0  0  0  0  0  0  0  0  0  0
   -0.7725   -5.5879   38.6158 H   0  0  0  0  0  0  0  0  0  0  0  0
    1.1183    0.4658   31.5880 H   0  0  0  0  0  0  0  0  0  0  0  0
   -0.4257    0.8802   31.0525 H   0  0  0  0  0  0  0  0  0  0  0  0
    2.2014    0.1807   29.5114 H   0  0  0  0  0  0  0  0  0  0  0  0
    1.2830    1.6836   29.4376 H   0  0  0  0  0  0  0  0  0  0  0  0
    0.5816    0.7438   27.4215 H   0  0  0  0  0  0  0  0  0  0  0  0
    0.8411   -0.9092   27.9796 H   0  0  0  0  0  0  0  0  0  0  0  0
   -1.3401    0.9508   29.0111 H   0  0  0  0  0  0  0  0  0  0  0  0
   -2.3416    1.6076   26.8716 H   0  0  0  0  0  0  0  0  0  0  0  0
   -4.1635    0.9438   25.5256 H   0  0  0  0  0  0  0  0  0  0  0  0
   -7.1204   -1.6589   26.0614 H   0  0  0  0  0  0  0  0  0  0  0  0
   -6.4200   -0.6493   25.1107 H   0  0  0  0  0  0  0  0  0  0  0  0
   -7.7739   -2.2294   24.3307 H   0  0  0  0  0  0  0  0  0  0  0  0
   -3.0025   -3.0874   25.6937 H   0  0  0  0  0  0  0  0  0  0  0  0
   -1.5537   -2.4742   27.6216 H   0  0  0  0  0  0  0  0  0  0  0  0
   -1.8756   -0.5981   30.6861 H   0  0  0  0  0  0  0  0  0  0  0  0
   -1.3759   -1.9496   29.7534 H   0  0  0  0  0  0  0  0  0  0  0  0
  1  2  2  0
  2  3  1  0
  3  4  1  0
  4  5  2  0
  5  6  1  0
  6  7  2  0
  7  8  1  0
  8  9  2  0
  9 10  1  0
 10 11  1  0
 11 12  1  0
 12 13  1  0
 13 14  1  0
 14 15  1  0
 15 16  1  0
 16 17  2  0
 17 18  1  0
 18 19  2  0
 19 20  1  0
 20 21  2  0
 15 22  1  0
 22 23  2  0
 22 24  2  0
  2 25  1  0
 25 26  1  0
 26 27  1  0
 27 28  1  0
 28 29  1  0
 29 30  1  0
 30 31  2  0
 31 32  1  0
 32 33  2  0
 33 34  1  0
 34 35  1  0
 33 36  1  0
 36 37  2  0
 29 38  1  0
 11  3  2  0
 22 12  1  0
 38 25  1  0
 10  6  1  0
 21 16  1  0
 37 30  1  0
  4 39  1  0
  5 40  1  0
  9 41  1  0
 13 42  1  0
 13 43  1  0
 14 44  1  0
 14 45  1  0
 15 46  1  0
 17 47  1  0
 18 48  1  0
 19 49  1  0
 20 50  1  0
 21 51  1  0
 26 52  1  0
 26 53  1  0
 27 54  1  0
 27 55  1  0
 28 56  1  0
 28 57  1  0
 29 58  1  0
 31 59  1  0
 32 60  1  0
 34 61  1  0
 34 62  1  0
 35 63  1  0
 36 64  1  0
 37 65  1  0
 38 66  1  0
 38 67  1  0
M  END
>  <Energy>  (484) 
393.47750073999032

>  <compound_id>  (484) 
4047

>  <target_id>  (484) 
1

>  <reference_id>  (484) 
59

>  <inspiration_ids>  (484) 
[145, 59]

>  <energy_score>  (484) 
244.69293599367268

>  <distance_score>  (484) 
1.6498471184936871

>  <path>  (484) 
/opt/xchem-fragalysis-2/maxwin/BulkDock/SCRATCH/505735/C4047-P59/C4047-P59.minimised.mol

>  <scratch_subdir>  (484) 
/opt/xchem-fragalysis-2/maxwin/BulkDock/SCRATCH/505735/C4047-P59

>  <fragmenstein_runtime>  (484) 
18.800021171569824

>  <fragmenstein_outcome>  (484) 
too moved

>  <fragmenstein_mode>  (484) 
expansion

>  <fragmenstein_error>  (484) 


$$$$
C4119-P145
     RDKit          3D

 53 57  0  0  0  0  0  0  0  0999 V2000
   -1.8608   -7.9327   34.3792 N   0  0  0  0  0  0  0  0  0  0  0  0
   -1.3083   -7.6217   33.1879 C   0  0  0  0  0  0  0  0  0  0  0  0
   -1.5164   -8.2570   32.0569 N   0  0  0  0  0  0  0  0  0  0  0  0
   -0.9340   -7.5492   31.0471 N   0  0  0  0  0  0  0  0  0  0  0  0
   -0.3709   -6.4930   31.5864 C   0  0  0  0  0  0  0  0  0  0  0  0
   -0.4822   -6.5423   32.9623 N   0  0  0  0  0  0  0  0  0  0  0  0
   -0.1970   -5.4037   33.8520 C   0  0  0  0  0  0  0  0  0  0  0  0
    0.5173   -5.5988   35.1400 N   0  0  0  0  0  0  0  0  0  0  0  0
    0.3208   -4.5672   36.1901 C   0  0  0  0  0  0  0  0  0  0  0  0
    0.7110   -5.2019   37.5241 C   0  0  0  0  0  0  0  0  0  0  0  0
    1.8116   -6.2259   37.2111 C   0  0  0  0  0  0  0  0  0  0  0  0
    2.1136   -7.2606   38.2622 C   0  0  0  0  0  0  0  0  0  0  0  0
    3.3764   -7.8749   38.2643 C   0  0  0  0  0  0  0  0  0  0  0  0
    3.6920   -8.8553   39.2058 C   0  0  0  0  0  0  0  0  0  0  0  0
    2.7508   -9.2405   40.1553 C   0  0  0  0  0  0  0  0  0  0  0  0
    1.4954   -8.6437   40.1680 C   0  0  0  0  0  0  0  0  0  0  0  0
    1.1791   -7.6602   39.2314 C   0  0  0  0  0  0  0  0  0  0  0  0
    1.1545   -7.0258   35.7363 S   0  0  0  0  0  0  0  0  0  0  0  0
    2.1670   -7.4685   34.8045 O   0  0  0  0  0  0  0  0  0  0  0  0
    0.0383   -7.8665   36.1033 O   0  0  0  0  0  0  0  0  0  0  0  0
    0.4261   -4.1201   33.0855 C   0  0  0  0  0  0  0  0  0  0  0  0
   -0.0944   -4.0623   31.6210 C   0  0  0  0  0  0  0  0  0  0  0  0
    0.1812   -5.3404   30.8534 C   0  0  0  0  0  0  0  0  0  0  0  0
    1.9905   -4.1953   33.1329 C   0  0  0  0  0  0  0  0  0  0  0  0
    2.6846   -3.0467   32.5267 N   0  0  0  0  0  0  0  0  0  0  0  0
    2.2526   -1.8258   33.2261 C   0  0  0  0  0  0  0  0  0  0  0  0
    0.7179   -1.6554   33.2797 C   0  0  0  0  0  0  0  0  0  0  0  0
   -0.0006   -2.8465   33.7609 N   0  0  0  0  0  0  0  0  0  0  0  0
   -1.2503   -7.8429   35.1978 H   0  0  0  0  0  0  0  0  0  0  0  0
   -2.1399   -8.9215   34.3961 H   0  0  0  0  0  0  0  0  0  0  0  0
   -1.2008   -5.1153   34.1433 H   0  0  0  0  0  0  0  0  0  0  0  0
    0.9879   -3.7209   36.0041 H   0  0  0  0  0  0  0  0  0  0  0  0
   -0.7143   -4.2155   36.2287 H   0  0  0  0  0  0  0  0  0  0  0  0
   -0.1884   -5.6765   37.9318 H   0  0  0  0  0  0  0  0  0  0  0  0
    1.0395   -4.4538   38.2529 H   0  0  0  0  0  0  0  0  0  0  0  0
    2.7267   -5.6999   36.9110 H   0  0  0  0  0  0  0  0  0  0  0  0
    4.1290   -7.6042   37.5257 H   0  0  0  0  0  0  0  0  0  0  0  0
    4.6683   -9.3329   39.1902 H   0  0  0  0  0  0  0  0  0  0  0  0
    2.9817  -10.0269   40.8695 H   0  0  0  0  0  0  0  0  0  0  0  0
    0.7517   -8.9725   40.8899 H   0  0  0  0  0  0  0  0  0  0  0  0
    0.1768   -7.2458   39.2706 H   0  0  0  0  0  0  0  0  0  0  0  0
    0.3409   -3.2297   31.0579 H   0  0  0  0  0  0  0  0  0  0  0  0
   -1.1764   -3.8768   31.6307 H   0  0  0  0  0  0  0  0  0  0  0  0
   -0.2826   -5.2706   29.8641 H   0  0  0  0  0  0  0  0  0  0  0  0
    1.2475   -5.4669   30.6745 H   0  0  0  0  0  0  0  0  0  0  0  0
    2.3568   -4.2742   34.1628 H   0  0  0  0  0  0  0  0  0  0  0  0
    2.3220   -5.1064   32.6508 H   0  0  0  0  0  0  0  0  0  0  0  0
    2.4334   -2.9643   31.5432 H   0  0  0  0  0  0  0  0  0  0  0  0
    2.6968   -0.9565   32.7287 H   0  0  0  0  0  0  0  0  0  0  0  0
    2.6543   -1.8397   34.2471 H   0  0  0  0  0  0  0  0  0  0  0  0
    0.3460   -1.3734   32.2881 H   0  0  0  0  0  0  0  0  0  0  0  0
    0.4810   -0.8191   33.9469 H   0  0  0  0  0  0  0  0  0  0  0  0
   -1.0104   -2.7089   33.6665 H   0  0  0  0  0  0  0  0  0  0  0  0
  1  2  1  0
  2  3  2  0
  3  4  1  0
  4  5  2  0
  5  6  1  0
  6  7  1  0
  7  8  1  0
  8  9  1  0
  9 10  1  0
 10 11  1  0
 11 12  1  0
 12 13  2  0
 13 14  1  0
 14 15  2  0
 15 16  1  0
 16 17  2  0
 11 18  1  0
 18 19  2  0
 18 20  2  0
  7 21  1  0
 21 22  1  0
 22 23  1  0
 21 24  1  0
 24 25  1  0
 25 26  1  0
 26 27  1  0
 27 28  1  0
  6  2  1  0
 18  8  1  0
 28 21  1  0
 23  5  1  0
 17 12  1  0
  1 29  1  0
  1 30  1  0
  7 31  1  0
  9 32  1  0
  9 33  1  0
 10 34  1  0
 10 35  1  0
 11 36  1  0
 13 37  1  0
 14 38  1  0
 15 39  1  0
 16 40  1  0
 17 41  1  0
 22 42  1  0
 22 43  1  0
 23 44  1  0
 23 45  1  0
 24 46  1  0
 24 47  1  0
 25 48  1  0
 26 49  1  0
 26 50  1  0
 27 51  1  0
 27 52  1  0
 28 53  1  0
M  END
>  <Energy>  (485) 
76.974730669668503

>  <compound_id>  (485) 
4119

>  <target_id>  (485) 
1

>  <reference_id>  (485) 
145

>  <inspiration_ids>  (485) 
[145, 132]

>  <energy_score>  (485) 
-102.69853420786643

>  <distance_score>  (485) 
0.7392775578271082

>  <path>  (485) 
/opt/xchem-fragalysis-2/maxwin/BulkDock/SCRATCH/505735/C4119-P145/C4119-P145.minimised.mol

>  <scratch_subdir>  (485) 
/opt/xchem-fragalysis-2/maxwin/BulkDock/SCRATCH/505735/C4119-P145

>  <fragmenstein_runtime>  (485) 
4.603607416152954

>  <fragmenstein_outcome>  (485) 
acceptable

>  <fragmenstein_mode>  (485) 
expansion

>  <fragmenstein_error>  (485) 


$$$$
C4119-P132
     RDKit          3D

 53 57  0  0  0  0  0  0  0  0999 V2000
   -1.8950   -7.8514   34.3926 N   0  0  0  0  0  0  0  0  0  0  0  0
   -1.3420   -7.6510   33.1781 C   0  0  0  0  0  0  0  0  0  0  0  0
   -1.5593   -8.3762   32.1035 N   0  0  0  0  0  0  0  0  0  0  0  0
   -0.9107   -7.8004   31.0517 N   0  0  0  0  0  0  0  0  0  0  0  0
   -0.2997   -6.7325   31.5099 C   0  0  0  0  0  0  0  0  0  0  0  0
   -0.4724   -6.6342   32.8749 N   0  0  0  0  0  0  0  0  0  0  0  0
   -0.1255   -5.4454   33.6707 C   0  0  0  0  0  0  0  0  0  0  0  0
    0.4477   -5.6130   35.0306 N   0  0  0  0  0  0  0  0  0  0  0  0
    0.3248   -4.5059   36.0033 C   0  0  0  0  0  0  0  0  0  0  0  0
    0.6985   -5.0796   37.3743 C   0  0  0  0  0  0  0  0  0  0  0  0
    1.7927   -6.1264   37.1131 C   0  0  0  0  0  0  0  0  0  0  0  0
    2.0956   -7.1175   38.2068 C   0  0  0  0  0  0  0  0  0  0  0  0
    3.3823   -7.6764   38.2799 C   0  0  0  0  0  0  0  0  0  0  0  0
    3.6969   -8.6250   39.2548 C   0  0  0  0  0  0  0  0  0  0  0  0
    2.7309   -9.0331   40.1689 C   0  0  0  0  0  0  0  0  0  0  0  0
    1.4511   -8.4927   40.1100 C   0  0  0  0  0  0  0  0  0  0  0  0
    1.1352   -7.5420   39.1386 C   0  0  0  0  0  0  0  0  0  0  0  0
    1.1328   -6.9957   35.6793 S   0  0  0  0  0  0  0  0  0  0  0  0
    2.1548   -7.4663   34.7703 O   0  0  0  0  0  0  0  0  0  0  0  0
    0.0280   -7.8307   36.0909 O   0  0  0  0  0  0  0  0  0  0  0  0
    0.7460   -4.3697   32.8385 C   0  0  0  0  0  0  0  0  0  0  0  0
    0.2590   -4.3477   31.3629 C   0  0  0  0  0  0  0  0  0  0  0  0
    0.3812   -5.7075   30.6993 C   0  0  0  0  0  0  0  0  0  0  0  0
    2.2726   -4.7339   32.9247 C   0  0  0  0  0  0  0  0  0  0  0  0
    3.1703   -3.7527   32.2866 N   0  0  0  0  0  0  0  0  0  0  0  0
    2.9501   -2.4398   32.9174 C   0  0  0  0  0  0  0  0  0  0  0  0
    1.4776   -1.9879   32.8760 C   0  0  0  0  0  0  0  0  0  0  0  0
    0.5307   -2.9887   33.3925 N   0  0  0  0  0  0  0  0  0  0  0  0
   -1.3026   -7.6431   35.2012 H   0  0  0  0  0  0  0  0  0  0  0  0
   -2.1097   -8.8510   34.5069 H   0  0  0  0  0  0  0  0  0  0  0  0
   -1.1135   -4.9865   33.8147 H   0  0  0  0  0  0  0  0  0  0  0  0
    1.0380   -3.7143   35.7602 H   0  0  0  0  0  0  0  0  0  0  0  0
   -0.6891   -4.0963   36.0214 H   0  0  0  0  0  0  0  0  0  0  0  0
   -0.2045   -5.5280   37.8035 H   0  0  0  0  0  0  0  0  0  0  0  0
    1.0334   -4.2995   38.0655 H   0  0  0  0  0  0  0  0  0  0  0  0
    2.7090   -5.6198   36.7845 H   0  0  0  0  0  0  0  0  0  0  0  0
    4.1562   -7.3870   37.5710 H   0  0  0  0  0  0  0  0  0  0  0  0
    4.6937   -9.0566   39.2947 H   0  0  0  0  0  0  0  0  0  0  0  0
    2.9629   -9.7909   40.9128 H   0  0  0  0  0  0  0  0  0  0  0  0
    0.6865   -8.8456   40.7984 H   0  0  0  0  0  0  0  0  0  0  0  0
    0.1117   -7.1805   39.1122 H   0  0  0  0  0  0  0  0  0  0  0  0
    0.8078   -3.6213   30.7538 H   0  0  0  0  0  0  0  0  0  0  0  0
   -0.7942   -4.0311   31.3354 H   0  0  0  0  0  0  0  0  0  0  0  0
   -0.0858   -5.6527   29.7129 H   0  0  0  0  0  0  0  0  0  0  0  0
    1.4269   -5.9844   30.5364 H   0  0  0  0  0  0  0  0  0  0  0  0
    2.5922   -4.8190   33.9696 H   0  0  0  0  0  0  0  0  0  0  0  0
    2.4624   -5.7151   32.4806 H   0  0  0  0  0  0  0  0  0  0  0  0
    2.9506   -3.6744   31.2953 H   0  0  0  0  0  0  0  0  0  0  0  0
    3.5726   -1.6957   32.4085 H   0  0  0  0  0  0  0  0  0  0  0  0
    3.2965   -2.4783   33.9579 H   0  0  0  0  0  0  0  0  0  0  0  0
    1.2066   -1.7170   31.8490 H   0  0  0  0  0  0  0  0  0  0  0  0
    1.3722   -1.0756   33.4737 H   0  0  0  0  0  0  0  0  0  0  0  0
   -0.4241   -2.6719   33.2150 H   0  0  0  0  0  0  0  0  0  0  0  0
  1  2  1  0
  2  3  2  0
  3  4  1  0
  4  5  2  0
  5  6  1  0
  6  7  1  0
  7  8  1  0
  8  9  1  0
  9 10  1  0
 10 11  1  0
 11 12  1  0
 12 13  2  0
 13 14  1  0
 14 15  2  0
 15 16  1  0
 16 17  2  0
 11 18  1  0
 18 19  2  0
 18 20  2  0
  7 21  1  0
 21 22  1  0
 22 23  1  0
 21 24  1  0
 24 25  1  0
 25 26  1  0
 26 27  1  0
 27 28  1  0
  6  2  1  0
 18  8  1  0
 28 21  1  0
 23  5  1  0
 17 12  1  0
  1 29  1  0
  1 30  1  0
  7 31  1  0
  9 32  1  0
  9 33  1  0
 10 34  1  0
 10 35  1  0
 11 36  1  0
 13 37  1  0
 14 38  1  0
 15 39  1  0
 16 40  1  0
 17 41  1  0
 22 42  1  0
 22 43  1  0
 23 44  1  0
 23 45  1  0
 24 46  1  0
 24 47  1  0
 25 48  1  0
 26 49  1  0
 26 50  1  0
 27 51  1  0
 27 52  1  0
 28 53  1  0
M  END
>  <Energy>  (486) 
75.324933887723503

>  <compound_id>  (486) 
4119

>  <target_id>  (486) 
1

>  <reference_id>  (486) 
132

>  <inspiration_ids>  (486) 
[145, 132]

>  <energy_score>  (486) 
-104.3483309898114

>  <distance_score>  (486) 
0.5049875394389878

>  <path>  (486) 
/opt/xchem-fragalysis-2/maxwin/BulkDock/SCRATCH/505735/C4119-P132/C4119-P132.minimised.mol

>  <scratch_subdir>  (486) 
/opt/xchem-fragalysis-2/maxwin/BulkDock/SCRATCH/505735/C4119-P132

>  <fragmenstein_runtime>  (486) 
5.015513181686401

>  <fragmenstein_outcome>  (486) 
acceptable

>  <fragmenstein_mode>  (486) 
expansion

>  <fragmenstein_error>  (486) 


$$$$
C4119-P145
     RDKit          3D

 53 57  0  0  0  0  0  0  0  0999 V2000
   -1.8678   -7.9310   34.3857 N   0  0  0  0  0  0  0  0  0  0  0  0
   -1.3190   -7.6271   33.1908 C   0  0  0  0  0  0  0  0  0  0  0  0
   -1.5306   -8.2704   32.0649 N   0  0  0  0  0  0  0  0  0  0  0  0
   -0.9472   -7.5730   31.0489 N   0  0  0  0  0  0  0  0  0  0  0  0
   -0.3792   -6.5150   31.5792 C   0  0  0  0  0  0  0  0  0  0  0  0
   -0.4928   -6.5503   32.9553 N   0  0  0  0  0  0  0  0  0  0  0  0
   -0.2016   -5.4044   33.8342 C   0  0  0  0  0  0  0  0  0  0  0  0
    0.4952   -5.5970   35.1313 N   0  0  0  0  0  0  0  0  0  0  0  0
    0.3056   -4.5573   36.1727 C   0  0  0  0  0  0  0  0  0  0  0  0
    0.6948   -5.1865   37.5102 C   0  0  0  0  0  0  0  0  0  0  0  0
    1.8003   -6.2076   37.2028 C   0  0  0  0  0  0  0  0  0  0  0  0
    2.1049   -7.2398   38.2562 C   0  0  0  0  0  0  0  0  0  0  0  0
    3.3659   -7.8580   38.2538 C   0  0  0  0  0  0  0  0  0  0  0  0
    3.6823   -8.8391   39.1944 C   0  0  0  0  0  0  0  0  0  0  0  0
    2.7436   -9.2210   40.1478 C   0  0  0  0  0  0  0  0  0  0  0  0
    1.4904   -8.6197   40.1657 C   0  0  0  0  0  0  0  0  0  0  0  0
    1.1735   -7.6352   39.2301 C   0  0  0  0  0  0  0  0  0  0  0  0
    1.1485   -7.0157   35.7294 S   0  0  0  0  0  0  0  0  0  0  0  0
    2.1647   -7.4502   34.7977 O   0  0  0  0  0  0  0  0  0  0  0  0
    0.0416   -7.8675   36.0986 O   0  0  0  0  0  0  0  0  0  0  0  0
    0.4445   -4.1390   33.0575 C   0  0  0  0  0  0  0  0  0  0  0  0
   -0.0743   -4.0882   31.5917 C   0  0  0  0  0  0  0  0  0  0  0  0
    0.1837   -5.3753   30.8356 C   0  0  0  0  0  0  0  0  0  0  0  0
    2.0049   -4.2431   33.1166 C   0  0  0  0  0  0  0  0  0  0  0  0
    2.7264   -3.1280   32.4819 N   0  0  0  0  0  0  0  0  0  0  0  0
    2.3187   -1.8803   33.1477 C   0  0  0  0  0  0  0  0  0  0  0  0
    0.7877   -1.6817   33.1984 C   0  0  0  0  0  0  0  0  0  0  0  0
    0.0458   -2.8463   33.7118 N   0  0  0  0  0  0  0  0  0  0  0  0
   -1.2536   -7.8373   35.2011 H   0  0  0  0  0  0  0  0  0  0  0  0
   -2.1454   -8.9202   34.4083 H   0  0  0  0  0  0  0  0  0  0  0  0
   -1.2038   -5.0978   34.1096 H   0  0  0  0  0  0  0  0  0  0  0  0
    0.9761   -3.7153   35.9802 H   0  0  0  0  0  0  0  0  0  0  0  0
   -0.7279   -4.2007   36.2094 H   0  0  0  0  0  0  0  0  0  0  0  0
   -0.2035   -5.6637   37.9170 H   0  0  0  0  0  0  0  0  0  0  0  0
    1.0189   -4.4349   38.2373 H   0  0  0  0  0  0  0  0  0  0  0  0
    2.7138   -5.6792   36.9025 H   0  0  0  0  0  0  0  0  0  0  0  0
    4.1161   -7.5905   37.5116 H   0  0  0  0  0  0  0  0  0  0  0  0
    4.6568   -9.3199   39.1749 H   0  0  0  0  0  0  0  0  0  0  0  0
    2.9749  -10.0080   40.8612 H   0  0  0  0  0  0  0  0  0  0  0  0
    0.7488   -8.9453   40.8912 H   0  0  0  0  0  0  0  0  0  0  0  0
    0.1729   -7.2171   39.2737 H   0  0  0  0  0  0  0  0  0  0  0  0
    0.3727   -3.2685   31.0193 H   0  0  0  0  0  0  0  0  0  0  0  0
   -1.1539   -3.8879   31.5995 H   0  0  0  0  0  0  0  0  0  0  0  0
   -0.2810   -5.3088   29.8466 H   0  0  0  0  0  0  0  0  0  0  0  0
    1.2479   -5.5140   30.6557 H   0  0  0  0  0  0  0  0  0  0  0  0
    2.3629   -4.2995   34.1512 H   0  0  0  0  0  0  0  0  0  0  0  0
    2.3157   -5.1762   32.6666 H   0  0  0  0  0  0  0  0  0  0  0  0
    2.4798   -3.0663   31.4958 H   0  0  0  0  0  0  0  0  0  0  0  0
    2.7780   -1.0333   32.6263 H   0  0  0  0  0  0  0  0  0  0  0  0
    2.7216   -1.8739   34.1684 H   0  0  0  0  0  0  0  0  0  0  0  0
    0.4186   -1.4138   32.2019 H   0  0  0  0  0  0  0  0  0  0  0  0
    0.5682   -0.8255   33.8461 H   0  0  0  0  0  0  0  0  0  0  0  0
   -0.9608   -2.6888   33.6159 H   0  0  0  0  0  0  0  0  0  0  0  0
  1  2  1  0
  2  3  2  0
  3  4  1  0
  4  5  2  0
  5  6  1  0
  6  7  1  0
  7  8  1  0
  8  9  1  0
  9 10  1  0
 10 11  1  0
 11 12  1  0
 12 13  2  0
 13 14  1  0
 14 15  2  0
 15 16  1  0
 16 17  2  0
 11 18  1  0
 18 19  2  0
 18 20  2  0
  7 21  1  0
 21 22  1  0
 22 23  1  0
 21 24  1  0
 24 25  1  0
 25 26  1  0
 26 27  1  0
 27 28  1  0
  6  2  1  0
 18  8  1  0
 28 21  1  0
 23  5  1  0
 17 12  1  0
  1 29  1  0
  1 30  1  0
  7 31  1  0
  9 32  1  0
  9 33  1  0
 10 34  1  0
 10 35  1  0
 11 36  1  0
 13 37  1  0
 14 38  1  0
 15 39  1  0
 16 40  1  0
 17 41  1  0
 22 42  1  0
 22 43  1  0
 23 44  1  0
 23 45  1  0
 24 46  1  0
 24 47  1  0
 25 48  1  0
 26 49  1  0
 26 50  1  0
 27 51  1  0
 27 52  1  0
 28 53  1  0
M  END
>  <Energy>  (487) 
76.952541662459197

>  <compound_id>  (487) 
4119

>  <target_id>  (487) 
1

>  <reference_id>  (487) 
145

>  <inspiration_ids>  (487) 
[145, 133]

>  <energy_score>  (487) 
-102.72072321507648

>  <distance_score>  (487) 
0.7076908371028907

>  <path>  (487) 
/opt/xchem-fragalysis-2/maxwin/BulkDock/SCRATCH/505735/C4119-P145/C4119-P145.minimised.mol

>  <scratch_subdir>  (487) 
/opt/xchem-fragalysis-2/maxwin/BulkDock/SCRATCH/505735/C4119-P145

>  <fragmenstein_runtime>  (487) 
4.453576564788818

>  <fragmenstein_outcome>  (487) 
acceptable

>  <fragmenstein_mode>  (487) 
expansion

>  <fragmenstein_error>  (487) 


$$$$
C4119-P133
     RDKit          3D

 53 57  0  0  0  0  0  0  0  0999 V2000
   -1.8761   -7.8701   34.4140 N   0  0  0  0  0  0  0  0  0  0  0  0
   -1.3351   -7.6575   33.1952 C   0  0  0  0  0  0  0  0  0  0  0  0
   -1.5748   -8.3625   32.1118 N   0  0  0  0  0  0  0  0  0  0  0  0
   -0.9283   -7.7862   31.0603 N   0  0  0  0  0  0  0  0  0  0  0  0
   -0.3018   -6.7313   31.5234 C   0  0  0  0  0  0  0  0  0  0  0  0
   -0.4604   -6.6419   32.8925 N   0  0  0  0  0  0  0  0  0  0  0  0
   -0.1257   -5.4457   33.6843 C   0  0  0  0  0  0  0  0  0  0  0  0
    0.5085   -5.5841   35.0205 N   0  0  0  0  0  0  0  0  0  0  0  0
    0.3207   -4.4993   36.0082 C   0  0  0  0  0  0  0  0  0  0  0  0
    0.6972   -5.0726   37.3789 C   0  0  0  0  0  0  0  0  0  0  0  0
    1.8064   -6.1057   37.1250 C   0  0  0  0  0  0  0  0  0  0  0  0
    2.1066   -7.0962   38.2229 C   0  0  0  0  0  0  0  0  0  0  0  0
    3.4001   -7.6339   38.3204 C   0  0  0  0  0  0  0  0  0  0  0  0
    3.7168   -8.5644   39.3127 C   0  0  0  0  0  0  0  0  0  0  0  0
    2.7468   -8.9750   40.2223 C   0  0  0  0  0  0  0  0  0  0  0  0
    1.4575   -8.4622   40.1341 C   0  0  0  0  0  0  0  0  0  0  0  0
    1.1389   -7.5337   39.1415 C   0  0  0  0  0  0  0  0  0  0  0  0
    1.1770   -6.9700   35.6793 S   0  0  0  0  0  0  0  0  0  0  0  0
    2.2217   -7.4354   34.7935 O   0  0  0  0  0  0  0  0  0  0  0  0
    0.0679   -7.7979   36.0804 O   0  0  0  0  0  0  0  0  0  0  0  0
    0.6979   -4.3434   32.8320 C   0  0  0  0  0  0  0  0  0  0  0  0
    0.1977   -4.3427   31.3614 C   0  0  0  0  0  0  0  0  0  0  0  0
    0.3631   -5.7012   30.7079 C   0  0  0  0  0  0  0  0  0  0  0  0
    2.2395   -4.6545   32.9032 C   0  0  0  0  0  0  0  0  0  0  0  0
    3.0947   -3.6495   32.2415 N   0  0  0  0  0  0  0  0  0  0  0  0
    2.8346   -2.3385   32.8611 C   0  0  0  0  0  0  0  0  0  0  0  0
    1.3453   -1.9401   32.8388 C   0  0  0  0  0  0  0  0  0  0  0  0
    0.4455   -2.9676   33.3837 N   0  0  0  0  0  0  0  0  0  0  0  0
   -1.2471   -7.7392   35.2138 H   0  0  0  0  0  0  0  0  0  0  0  0
   -2.1087   -8.8712   34.5124 H   0  0  0  0  0  0  0  0  0  0  0  0
   -1.1227   -5.0161   33.8590 H   0  0  0  0  0  0  0  0  0  0  0  0
    1.0023   -3.6746   35.7827 H   0  0  0  0  0  0  0  0  0  0  0  0
   -0.7094   -4.1316   36.0170 H   0  0  0  0  0  0  0  0  0  0  0  0
   -0.2029   -5.5322   37.8022 H   0  0  0  0  0  0  0  0  0  0  0  0
    1.0168   -4.2898   38.0744 H   0  0  0  0  0  0  0  0  0  0  0  0
    2.7214   -5.5863   36.8131 H   0  0  0  0  0  0  0  0  0  0  0  0
    4.1784   -7.3376   37.6191 H   0  0  0  0  0  0  0  0  0  0  0  0
    4.7227   -8.9721   39.3729 H   0  0  0  0  0  0  0  0  0  0  0  0
    2.9911   -9.7040   40.9897 H   0  0  0  0  0  0  0  0  0  0  0  0
    0.6870   -8.8048   40.8201 H   0  0  0  0  0  0  0  0  0  0  0  0
    0.1079   -7.1958   39.0876 H   0  0  0  0  0  0  0  0  0  0  0  0
    0.7174   -3.6031   30.7430 H   0  0  0  0  0  0  0  0  0  0  0  0
   -0.8653   -4.0610   31.3410 H   0  0  0  0  0  0  0  0  0  0  0  0
   -0.0942   -5.6676   29.7154 H   0  0  0  0  0  0  0  0  0  0  0  0
    1.4163   -5.9530   30.5566 H   0  0  0  0  0  0  0  0  0  0  0  0
    2.5767   -4.7155   33.9444 H   0  0  0  0  0  0  0  0  0  0  0  0
    2.4579   -5.6346   32.4698 H   0  0  0  0  0  0  0  0  0  0  0  0
    2.8564   -3.5911   31.2532 H   0  0  0  0  0  0  0  0  0  0  0  0
    3.4212   -1.5776   32.3344 H   0  0  0  0  0  0  0  0  0  0  0  0
    3.1983   -2.3520   33.8963 H   0  0  0  0  0  0  0  0  0  0  0  0
    1.0477   -1.6891   31.8142 H   0  0  0  0  0  0  0  0  0  0  0  0
    1.2179   -1.0255   33.4287 H   0  0  0  0  0  0  0  0  0  0  0  0
   -0.5243   -2.6877   33.2260 H   0  0  0  0  0  0  0  0  0  0  0  0
  1  2  1  0
  2  3  2  0
  3  4  1  0
  4  5  2  0
  5  6  1  0
  6  7  1  0
  7  8  1  0
  8  9  1  0
  9 10  1  0
 10 11  1  0
 11 12  1  0
 12 13  2  0
 13 14  1  0
 14 15  2  0
 15 16  1  0
 16 17  2  0
 11 18  1  0
 18 19  2  0
 18 20  2  0
  7 21  1  0
 21 22  1  0
 22 23  1  0
 21 24  1  0
 24 25  1  0
 25 26  1  0
 26 27  1  0
 27 28  1  0
  6  2  1  0
 18  8  1  0
 28 21  1  0
 23  5  1  0
 17 12  1  0
  1 29  1  0
  1 30  1  0
  7 31  1  0
  9 32  1  0
  9 33  1  0
 10 34  1  0
 10 35  1  0
 11 36  1  0
 13 37  1  0
 14 38  1  0
 15 39  1  0
 16 40  1  0
 17 41  1  0
 22 42  1  0
 22 43  1  0
 23 44  1  0
 23 45  1  0
 24 46  1  0
 24 47  1  0
 25 48  1  0
 26 49  1  0
 26 50  1  0
 27 51  1  0
 27 52  1  0
 28 53  1  0
M  END
>  <Energy>  (488) 
75.744792996636662

>  <compound_id>  (488) 
4119

>  <target_id>  (488) 
1

>  <reference_id>  (488) 
133

>  <inspiration_ids>  (488) 
[145, 133]

>  <energy_score>  (488) 
-103.92847188089803

>  <distance_score>  (488) 
0.7082423674705218

>  <path>  (488) 
/opt/xchem-fragalysis-2/maxwin/BulkDock/SCRATCH/505735/C4119-P133/C4119-P133.minimised.mol

>  <scratch_subdir>  (488) 
/opt/xchem-fragalysis-2/maxwin/BulkDock/SCRATCH/505735/C4119-P133

>  <fragmenstein_runtime>  (488) 
5.007031202316284

>  <fragmenstein_outcome>  (488) 
acceptable

>  <fragmenstein_mode>  (488) 
expansion

>  <fragmenstein_error>  (488) 


$$$$
C4122-P145
     RDKit          3D

 49 53  0  0  0  0  0  0  0  0999 V2000
   -2.1462   -3.3750   31.2400 O   0  0  0  0  0  0  0  0  0  0  0  0
   -0.9309   -2.7352   31.6834 S   0  0  0  0  0  0  0  0  0  0  0  0
   -0.9357   -1.7137   32.7138 O   0  0  0  0  0  0  0  0  0  0  0  0
   -0.0062   -2.1364   30.2741 C   0  0  0  0  0  0  0  0  0  0  0  0
   -0.4394   -0.8252   29.6694 C   0  0  0  0  0  0  0  0  0  0  0  0
    0.0144    0.3955   30.1732 C   0  0  0  0  0  0  0  0  0  0  0  0
   -0.1827    1.5802   29.4619 C   0  0  0  0  0  0  0  0  0  0  0  0
   -0.8809    1.5774   28.2592 C   0  0  0  0  0  0  0  0  0  0  0  0
   -1.3785    0.3809   27.7640 C   0  0  0  0  0  0  0  0  0  0  0  0
   -1.1672   -0.8100   28.4640 C   0  0  0  0  0  0  0  0  0  0  0  0
    1.4709   -2.2513   30.7160 C   0  0  0  0  0  0  0  0  0  0  0  0
    1.5759   -3.0880   32.0160 C   0  0  0  0  0  0  0  0  0  0  0  0
    0.3384   -4.0169   32.1005 C   0  0  0  0  0  0  0  0  0  0  0  0
    0.4668   -5.0646   30.9547 C   0  0  0  0  0  0  0  0  0  0  0  0
   -0.4926   -6.2262   31.0406 C   0  0  0  0  0  0  0  0  0  0  0  0
   -0.4119   -6.8525   32.3905 C   0  0  0  0  0  0  0  0  0  0  0  0
   -1.3653   -7.9181   32.6044 N   0  0  0  0  0  0  0  0  0  0  0  0
   -1.6201   -7.9087   34.0460 N   0  0  0  0  0  0  0  0  0  0  0  0
   -0.9394   -6.7201   34.5792 C   0  0  0  0  0  0  0  0  0  0  0  0
    0.3688   -7.0755   35.3073 C   0  0  0  0  0  0  0  0  0  0  0  0
    1.1745   -5.8119   35.5613 C   0  0  0  0  0  0  0  0  0  0  0  0
    1.4066   -5.0402   34.2576 C   0  0  0  0  0  0  0  0  0  0  0  0
    0.0984   -4.6992   33.5055 C   0  0  0  0  0  0  0  0  0  0  0  0
   -0.7411   -5.8953   33.4034 N   0  0  0  0  0  0  0  0  0  0  0  0
   -0.1769   -2.8759   29.4855 H   0  0  0  0  0  0  0  0  0  0  0  0
    0.5616    0.4457   31.1121 H   0  0  0  0  0  0  0  0  0  0  0  0
    0.2096    2.5166   29.8513 H   0  0  0  0  0  0  0  0  0  0  0  0
   -1.0482    2.5049   27.7173 H   0  0  0  0  0  0  0  0  0  0  0  0
   -1.9266    0.3586   26.8246 H   0  0  0  0  0  0  0  0  0  0  0  0
   -1.5459   -1.7334   28.0249 H   0  0  0  0  0  0  0  0  0  0  0  0
    1.9605   -1.2864   30.8789 H   0  0  0  0  0  0  0  0  0  0  0  0
    2.0425   -2.7375   29.9150 H   0  0  0  0  0  0  0  0  0  0  0  0
    2.5199   -3.6438   32.0317 H   0  0  0  0  0  0  0  0  0  0  0  0
    1.5988   -2.4021   32.8727 H   0  0  0  0  0  0  0  0  0  0  0  0
    0.3783   -4.6519   29.9512 H   0  0  0  0  0  0  0  0  0  0  0  0
    1.4662   -5.4733   30.9923 H   0  0  0  0  0  0  0  0  0  0  0  0
   -0.2985   -6.9533   30.2449 H   0  0  0  0  0  0  0  0  0  0  0  0
   -1.4904   -5.8510   30.9175 H   0  0  0  0  0  0  0  0  0  0  0  0
    0.5961   -7.2047   32.5547 H   0  0  0  0  0  0  0  0  0  0  0  0
   -1.0412   -8.8157   32.2493 H   0  0  0  0  0  0  0  0  0  0  0  0
   -1.3430   -8.7736   34.5258 H   0  0  0  0  0  0  0  0  0  0  0  0
   -1.5898   -6.2136   35.2951 H   0  0  0  0  0  0  0  0  0  0  0  0
    0.9789   -7.7771   34.7320 H   0  0  0  0  0  0  0  0  0  0  0  0
    0.1418   -7.5720   36.2586 H   0  0  0  0  0  0  0  0  0  0  0  0
    2.1377   -6.0690   36.0158 H   0  0  0  0  0  0  0  0  0  0  0  0
    0.6426   -5.1706   36.2749 H   0  0  0  0  0  0  0  0  0  0  0  0
    1.9441   -4.1175   34.5043 H   0  0  0  0  0  0  0  0  0  0  0  0
    2.0677   -5.6273   33.6122 H   0  0  0  0  0  0  0  0  0  0  0  0
   -0.4411   -3.9815   34.1363 H   0  0  0  0  0  0  0  0  0  0  0  0
  1  2  2  0
  2  3  2  0
  2  4  1  0
  4  5  1  0
  5  6  2  0
  6  7  1  0
  7  8  2  0
  8  9  1  0
  9 10  2  0
  4 11  1  0
 11 12  1  0
 12 13  1  0
 13 14  1  0
 14 15  1  0
 15 16  1  0
 16 17  1  0
 17 18  1  0
 18 19  1  0
 19 20  1  0
 20 21  1  0
 21 22  1  0
 22 23  1  0
 23 24  1  0
 13  2  1  0
 24 16  1  0
 10  5  1  0
 23 13  1  0
 24 19  1  0
  4 25  1  0
  6 26  1  0
  7 27  1  0
  8 28  1  0
  9 29  1  0
 10 30  1  0
 11 31  1  0
 11 32  1  0
 12 33  1  0
 12 34  1  0
 14 35  1  0
 14 36  1  0
 15 37  1  0
 15 38  1  0
 16 39  1  0
 17 40  1  0
 18 41  1  0
 19 42  1  0
 20 43  1  0
 20 44  1  0
 21 45  1  0
 21 46  1  0
 22 47  1  0
 22 48  1  0
 23 49  1  0
M  END
>  <Energy>  (489) 
88.991621758578958

>  <compound_id>  (489) 
4122

>  <target_id>  (489) 
1

>  <reference_id>  (489) 
145

>  <inspiration_ids>  (489) 
[145, 141]

>  <energy_score>  (489) 
-34.16993729631142

>  <distance_score>  (489) 
1.6728617185221897

>  <path>  (489) 
/opt/xchem-fragalysis-2/maxwin/BulkDock/SCRATCH/505735/C4122-P145/C4122-P145.minimised.mol

>  <scratch_subdir>  (489) 
/opt/xchem-fragalysis-2/maxwin/BulkDock/SCRATCH/505735/C4122-P145

>  <fragmenstein_runtime>  (489) 
17.68124222755432

>  <fragmenstein_outcome>  (489) 
too moved

>  <fragmenstein_mode>  (489) 
expansion

>  <fragmenstein_error>  (489) 


$$$$
C4122-P141
     RDKit          3D

 49 53  0  0  0  0  0  0  0  0999 V2000
   -1.6420   -3.6080   30.4373 O   0  0  0  0  0  0  0  0  0  0  0  0
   -0.8164   -2.8167   31.3110 S   0  0  0  0  0  0  0  0  0  0  0  0
   -1.3956   -1.9863   32.3507 O   0  0  0  0  0  0  0  0  0  0  0  0
    0.3132   -1.8329   30.3458 C   0  0  0  0  0  0  0  0  0  0  0  0
   -0.3042   -0.6926   29.5659 C   0  0  0  0  0  0  0  0  0  0  0  0
    0.1947    0.6122   29.6799 C   0  0  0  0  0  0  0  0  0  0  0  0
   -0.2448    1.6376   28.8397 C   0  0  0  0  0  0  0  0  0  0  0  0
   -1.1911    1.3824   27.8583 C   0  0  0  0  0  0  0  0  0  0  0  0
   -1.6850    0.0940   27.7095 C   0  0  0  0  0  0  0  0  0  0  0  0
   -1.2540   -0.9333   28.5563 C   0  0  0  0  0  0  0  0  0  0  0  0
    1.4451   -1.5650   31.3565 C   0  0  0  0  0  0  0  0  0  0  0  0
    1.5033   -2.6963   32.4203 C   0  0  0  0  0  0  0  0  0  0  0  0
    0.5360   -3.8444   32.0339 C   0  0  0  0  0  0  0  0  0  0  0  0
    1.2302   -4.7415   30.9627 C   0  0  0  0  0  0  0  0  0  0  0  0
    0.4065   -5.9612   30.5564 C   0  0  0  0  0  0  0  0  0  0  0  0
    0.0549   -6.7374   31.7999 C   0  0  0  0  0  0  0  0  0  0  0  0
   -0.8616   -7.8503   31.6197 N   0  0  0  0  0  0  0  0  0  0  0  0
   -1.4689   -8.0305   32.9450 N   0  0  0  0  0  0  0  0  0  0  0  0
   -1.0406   -6.8913   33.7657 C   0  0  0  0  0  0  0  0  0  0  0  0
    0.0772   -7.2474   34.7703 C   0  0  0  0  0  0  0  0  0  0  0  0
    0.6642   -5.9825   35.3746 C   0  0  0  0  0  0  0  0  0  0  0  0
    1.1531   -5.0510   34.2626 C   0  0  0  0  0  0  0  0  0  0  0  0
    0.0385   -4.7112   33.2418 C   0  0  0  0  0  0  0  0  0  0  0  0
   -0.6283   -5.9229   32.7716 N   0  0  0  0  0  0  0  0  0  0  0  0
    0.7089   -2.4894   29.5651 H   0  0  0  0  0  0  0  0  0  0  0  0
    0.9570    0.8720   30.4085 H   0  0  0  0  0  0  0  0  0  0  0  0
    0.1478    2.6457   28.9555 H   0  0  0  0  0  0  0  0  0  0  0  0
   -1.5442    2.1817   27.2118 H   0  0  0  0  0  0  0  0  0  0  0  0
   -2.3966   -0.1309   26.9185 H   0  0  0  0  0  0  0  0  0  0  0  0
   -1.6452   -1.9359   28.3773 H   0  0  0  0  0  0  0  0  0  0  0  0
    1.2918   -0.6251   31.8989 H   0  0  0  0  0  0  0  0  0  0  0  0
    2.4047   -1.4745   30.8345 H   0  0  0  0  0  0  0  0  0  0  0  0
    2.5329   -3.0485   32.5500 H   0  0  0  0  0  0  0  0  0  0  0  0
    1.1998   -2.2613   33.3818 H   0  0  0  0  0  0  0  0  0  0  0  0
    1.5114   -4.2028   30.0570 H   0  0  0  0  0  0  0  0  0  0  0  0
    2.1814   -5.1023   31.3783 H   0  0  0  0  0  0  0  0  0  0  0  0
    0.9987   -6.5870   29.8809 H   0  0  0  0  0  0  0  0  0  0  0  0
   -0.4780   -5.6638   29.9968 H   0  0  0  0  0  0  0  0  0  0  0  0
    0.9960   -7.1189   32.2114 H   0  0  0  0  0  0  0  0  0  0  0  0
   -0.3849   -8.6797   31.2658 H   0  0  0  0  0  0  0  0  0  0  0  0
   -1.2527   -8.9068   33.4205 H   0  0  0  0  0  0  0  0  0  0  0  0
   -1.8889   -6.5354   34.3442 H   0  0  0  0  0  0  0  0  0  0  0  0
    0.8916   -7.7982   34.2938 H   0  0  0  0  0  0  0  0  0  0  0  0
   -0.3244   -7.8903   35.5622 H   0  0  0  0  0  0  0  0  0  0  0  0
    1.4959   -6.2358   36.0412 H   0  0  0  0  0  0  0  0  0  0  0  0
   -0.0937   -5.4707   35.9800 H   0  0  0  0  0  0  0  0  0  0  0  0
    1.5269   -4.1334   34.7302 H   0  0  0  0  0  0  0  0  0  0  0  0
    2.0070   -5.5167   33.7553 H   0  0  0  0  0  0  0  0  0  0  0  0
   -0.7096   -4.1240   33.7895 H   0  0  0  0  0  0  0  0  0  0  0  0
  1  2  2  0
  2  3  2  0
  2  4  1  0
  4  5  1  0
  5  6  2  0
  6  7  1  0
  7  8  2  0
  8  9  1  0
  9 10  2  0
  4 11  1  0
 11 12  1  0
 12 13  1  0
 13 14  1  0
 14 15  1  0
 15 16  1  0
 16 17  1  0
 17 18  1  0
 18 19  1  0
 19 20  1  0
 20 21  1  0
 21 22  1  0
 22 23  1  0
 23 24  1  0
 13  2  1  0
 24 16  1  0
 10  5  1  0
 23 13  1  0
 24 19  1  0
  4 25  1  0
  6 26  1  0
  7 27  1  0
  8 28  1  0
  9 29  1  0
 10 30  1  0
 11 31  1  0
 11 32  1  0
 12 33  1  0
 12 34  1  0
 14 35  1  0
 14 36  1  0
 15 37  1  0
 15 38  1  0
 16 39  1  0
 17 40  1  0
 18 41  1  0
 19 42  1  0
 20 43  1  0
 20 44  1  0
 21 45  1  0
 21 46  1  0
 22 47  1  0
 22 48  1  0
 23 49  1  0
M  END
>  <Energy>  (490) 
87.161718812059874

>  <compound_id>  (490) 
4122

>  <target_id>  (490) 
1

>  <reference_id>  (490) 
141

>  <inspiration_ids>  (490) 
[145, 141]

>  <energy_score>  (490) 
-35.99984024282983

>  <distance_score>  (490) 
1.556178267836277

>  <path>  (490) 
/opt/xchem-fragalysis-2/maxwin/BulkDock/SCRATCH/505735/C4122-P141/C4122-P141.minimised.mol

>  <scratch_subdir>  (490) 
/opt/xchem-fragalysis-2/maxwin/BulkDock/SCRATCH/505735/C4122-P141

>  <fragmenstein_runtime>  (490) 
14.686901569366455

>  <fragmenstein_outcome>  (490) 
too moved

>  <fragmenstein_mode>  (490) 
expansion

>  <fragmenstein_error>  (490) 


$$$$
C4125-P145
     RDKit          3D

 48 52  0  0  0  0  0  0  0  0999 V2000
    1.9003   -7.5934   34.6816 O   0  0  0  0  0  0  0  0  0  0  0  0
    0.9267   -7.0460   35.6088 S   0  0  0  0  0  0  0  0  0  0  0  0
   -0.2042   -7.8188   36.0622 O   0  0  0  0  0  0  0  0  0  0  0  0
    1.7618   -6.1986   36.9655 C   0  0  0  0  0  0  0  0  0  0  0  0
    2.0556   -7.1466   38.1044 C   0  0  0  0  0  0  0  0  0  0  0  0
    3.3947   -7.4815   38.3774 C   0  0  0  0  0  0  0  0  0  0  0  0
    3.7257   -8.3768   39.3980 C   0  0  0  0  0  0  0  0  0  0  0  0
    2.7257   -8.9532   40.1714 C   0  0  0  0  0  0  0  0  0  0  0  0
    1.3975   -8.6349   39.9217 C   0  0  0  0  0  0  0  0  0  0  0  0
    1.0690   -7.7450   38.8969 C   0  0  0  0  0  0  0  0  0  0  0  0
    1.0018   -4.8554   37.1563 C   0  0  0  0  0  0  0  0  0  0  0  0
    1.9256   -3.8247   37.8479 C   0  0  0  0  0  0  0  0  0  0  0  0
    1.1343   -2.6704   38.4579 C   0  0  0  0  0  0  0  0  0  0  0  0
    0.2422   -3.1261   39.5153 N   0  0  0  0  0  0  0  0  0  0  0  0
   -0.2406   -4.4979   39.3631 C   0  0  0  0  0  0  0  0  0  0  0  0
   -0.3541   -4.9166   37.8973 C   0  0  0  0  0  0  0  0  0  0  0  0
    0.7516   -4.4118   35.6891 C   0  0  0  0  0  0  0  0  0  0  0  0
    0.2884   -5.5970   34.9139 N   0  0  0  0  0  0  0  0  0  0  0  0
    0.1479   -5.5902   33.4761 C   0  0  0  0  0  0  0  0  0  0  0  0
    0.6538   -4.5215   32.8212 C   0  0  0  0  0  0  0  0  0  0  0  0
    0.5884   -4.4512   31.3712 C   0  0  0  0  0  0  0  0  0  0  0  0
    0.0298   -5.4351   30.6509 C   0  0  0  0  0  0  0  0  0  0  0  0
   -0.5375   -6.5498   31.3165 C   0  0  0  0  0  0  0  0  0  0  0  0
   -1.1656   -7.6053   30.8530 N   0  0  0  0  0  0  0  0  0  0  0  0
   -1.5902   -8.3338   31.9301 N   0  0  0  0  0  0  0  0  0  0  0  0
   -1.2003   -7.7136   33.0242 C   0  0  0  0  0  0  0  0  0  0  0  0
   -0.4851   -6.5898   32.7090 N   0  0  0  0  0  0  0  0  0  0  0  0
    2.7314   -5.9348   36.5126 H   0  0  0  0  0  0  0  0  0  0  0  0
    4.2075   -7.0550   37.7923 H   0  0  0  0  0  0  0  0  0  0  0  0
    4.7660   -8.6294   39.5863 H   0  0  0  0  0  0  0  0  0  0  0  0
    2.9732   -9.6664   40.9532 H   0  0  0  0  0  0  0  0  0  0  0  0
    0.6104   -9.1154   40.4993 H   0  0  0  0  0  0  0  0  0  0  0  0
    0.0151   -7.5726   38.7217 H   0  0  0  0  0  0  0  0  0  0  0  0
    2.6692   -3.4262   37.1470 H   0  0  0  0  0  0  0  0  0  0  0  0
    2.5035   -4.3098   38.6463 H   0  0  0  0  0  0  0  0  0  0  0  0
    1.8234   -1.9285   38.8751 H   0  0  0  0  0  0  0  0  0  0  0  0
    0.5556   -2.1632   37.6768 H   0  0  0  0  0  0  0  0  0  0  0  0
   -0.5428   -2.4834   39.6204 H   0  0  0  0  0  0  0  0  0  0  0  0
    0.4373   -5.1675   39.9019 H   0  0  0  0  0  0  0  0  0  0  0  0
   -1.2134   -4.5874   39.8569 H   0  0  0  0  0  0  0  0  0  0  0  0
   -0.8067   -5.9028   37.8155 H   0  0  0  0  0  0  0  0  0  0  0  0
   -1.0739   -4.2362   37.4232 H   0  0  0  0  0  0  0  0  0  0  0  0
    0.0128   -3.6058   35.6232 H   0  0  0  0  0  0  0  0  0  0  0  0
    1.6951   -4.0482   35.2647 H   0  0  0  0  0  0  0  0  0  0  0  0
    1.1382   -3.6748   33.2893 H   0  0  0  0  0  0  0  0  0  0  0  0
    1.0072   -3.5756   30.8812 H   0  0  0  0  0  0  0  0  0  0  0  0
   -0.0271   -5.3778   29.5702 H   0  0  0  0  0  0  0  0  0  0  0  0
   -1.4265   -8.0358   34.0287 H   0  0  0  0  0  0  0  0  0  0  0  0
  1  2  2  0
  2  3  2  0
  2  4  1  0
  4  5  1  0
  5  6  2  0
  6  7  1  0
  7  8  2  0
  8  9  1  0
  9 10  2  0
  4 11  1  0
 11 12  1  0
 12 13  1  0
 13 14  1  0
 14 15  1  0
 15 16  1  0
 11 17  1  0
 17 18  1  0
 18 19  1  0
 19 20  2  0
 20 21  1  0
 21 22  2  0
 22 23  1  0
 23 24  2  0
 24 25  1  0
 25 26  2  0
 26 27  1  0
 18  2  1  0
 27 19  1  0
 10  5  1  0
 16 11  1  0
 27 23  1  0
  4 28  1  0
  6 29  1  0
  7 30  1  0
  8 31  1  0
  9 32  1  0
 10 33  1  0
 12 34  1  0
 12 35  1  0
 13 36  1  0
 13 37  1  0
 14 38  1  0
 15 39  1  0
 15 40  1  0
 16 41  1  0
 16 42  1  0
 17 43  1  0
 17 44  1  0
 20 45  1  0
 21 46  1  0
 22 47  1  0
 26 48  1  0
M  END
>  <Energy>  (491) 
72.816185988570282

>  <compound_id>  (491) 
4125

>  <target_id>  (491) 
1

>  <reference_id>  (491) 
145

>  <inspiration_ids>  (491) 
[145, 152]

>  <energy_score>  (491) 
-56.820675480481206

>  <distance_score>  (491) 
0.6167061765968097

>  <path>  (491) 
/opt/xchem-fragalysis-2/maxwin/BulkDock/SCRATCH/505735/C4125-P145/C4125-P145.minimised.mol

>  <scratch_subdir>  (491) 
/opt/xchem-fragalysis-2/maxwin/BulkDock/SCRATCH/505735/C4125-P145

>  <fragmenstein_runtime>  (491) 
3.9747283458709717

>  <fragmenstein_outcome>  (491) 
acceptable

>  <fragmenstein_mode>  (491) 
expansion

>  <fragmenstein_error>  (491) 


$$$$
C4125-P152
     RDKit          3D

 48 52  0  0  0  0  0  0  0  0999 V2000
    1.9179   -7.8092   34.8774 O   0  0  0  0  0  0  0  0  0  0  0  0
    0.8981   -7.1485   35.6664 S   0  0  0  0  0  0  0  0  0  0  0  0
   -0.3272   -7.8038   36.0582 O   0  0  0  0  0  0  0  0  0  0  0  0
    1.5792   -6.2044   37.0248 C   0  0  0  0  0  0  0  0  0  0  0  0
    1.9348   -7.0998   38.1871 C   0  0  0  0  0  0  0  0  0  0  0  0
    3.2817   -7.2026   38.5781 C   0  0  0  0  0  0  0  0  0  0  0  0
    3.6707   -8.0423   39.6252 C   0  0  0  0  0  0  0  0  0  0  0  0
    2.7200   -8.7856   40.3136 C   0  0  0  0  0  0  0  0  0  0  0  0
    1.3840   -8.6952   39.9471 C   0  0  0  0  0  0  0  0  0  0  0  0
    0.9995   -7.8709   38.8876 C   0  0  0  0  0  0  0  0  0  0  0  0
    0.6635   -4.9211   37.1667 C   0  0  0  0  0  0  0  0  0  0  0  0
    1.6041   -3.6915   37.3181 C   0  0  0  0  0  0  0  0  0  0  0  0
    0.9486   -2.5545   38.0973 C   0  0  0  0  0  0  0  0  0  0  0  0
    0.6495   -2.9579   39.4673 N   0  0  0  0  0  0  0  0  0  0  0  0
    0.2195   -4.3491   39.6182 C   0  0  0  0  0  0  0  0  0  0  0  0
   -0.3604   -4.9220   38.3287 C   0  0  0  0  0  0  0  0  0  0  0  0
   -0.1493   -4.7869   35.8240 C   0  0  0  0  0  0  0  0  0  0  0  0
    0.4672   -5.7202   34.8693 N   0  0  0  0  0  0  0  0  0  0  0  0
    0.2076   -5.7092   33.4766 C   0  0  0  0  0  0  0  0  0  0  0  0
    0.7991   -4.6695   32.8539 C   0  0  0  0  0  0  0  0  0  0  0  0
    0.7201   -4.5605   31.4086 C   0  0  0  0  0  0  0  0  0  0  0  0
    0.0987   -5.4984   30.6739 C   0  0  0  0  0  0  0  0  0  0  0  0
   -0.5227   -6.6011   31.3175 C   0  0  0  0  0  0  0  0  0  0  0  0
   -1.1969   -7.6249   30.8436 N   0  0  0  0  0  0  0  0  0  0  0  0
   -1.6525   -8.3487   31.9131 N   0  0  0  0  0  0  0  0  0  0  0  0
   -1.2370   -7.7558   33.0125 C   0  0  0  0  0  0  0  0  0  0  0  0
   -0.4743   -6.6627   32.7081 N   0  0  0  0  0  0  0  0  0  0  0  0
    2.5313   -5.8649   36.5851 H   0  0  0  0  0  0  0  0  0  0  0  0
    4.0555   -6.6321   38.0673 H   0  0  0  0  0  0  0  0  0  0  0  0
    4.7185   -8.1129   39.9060 H   0  0  0  0  0  0  0  0  0  0  0  0
    3.0159   -9.4477   41.1229 H   0  0  0  0  0  0  0  0  0  0  0  0
    0.6411   -9.3062   40.4570 H   0  0  0  0  0  0  0  0  0  0  0  0
   -0.0475   -7.8894   38.6075 H   0  0  0  0  0  0  0  0  0  0  0  0
    1.9340   -3.3296   36.3365 H   0  0  0  0  0  0  0  0  0  0  0  0
    2.5202   -3.9782   37.8534 H   0  0  0  0  0  0  0  0  0  0  0  0
    1.6214   -1.6908   38.1256 H   0  0  0  0  0  0  0  0  0  0  0  0
    0.0325   -2.2285   37.5905 H   0  0  0  0  0  0  0  0  0  0  0  0
   -0.0432   -2.3285   39.8732 H   0  0  0  0  0  0  0  0  0  0  0  0
    1.0748   -4.9451   39.9525 H   0  0  0  0  0  0  0  0  0  0  0  0
   -0.5288   -4.4066   40.4167 H   0  0  0  0  0  0  0  0  0  0  0  0
   -0.7815   -5.9132   38.4968 H   0  0  0  0  0  0  0  0  0  0  0  0
   -1.2267   -4.2992   38.0611 H   0  0  0  0  0  0  0  0  0  0  0  0
   -1.1969   -5.0802   35.9578 H   0  0  0  0  0  0  0  0  0  0  0  0
   -0.1376   -3.7597   35.4459 H   0  0  0  0  0  0  0  0  0  0  0  0
    1.3728   -3.9134   33.3805 H   0  0  0  0  0  0  0  0  0  0  0  0
    1.1807   -3.6982   30.9338 H   0  0  0  0  0  0  0  0  0  0  0  0
    0.0295   -5.4087   29.5971 H   0  0  0  0  0  0  0  0  0  0  0  0
   -1.4757   -8.0776   34.0134 H   0  0  0  0  0  0  0  0  0  0  0  0
  1  2  2  0
  2  3  2  0
  2  4  1  0
  4  5  1  0
  5  6  2  0
  6  7  1  0
  7  8  2  0
  8  9  1  0
  9 10  2  0
  4 11  1  0
 11 12  1  0
 12 13  1  0
 13 14  1  0
 14 15  1  0
 15 16  1  0
 11 17  1  0
 17 18  1  0
 18 19  1  0
 19 20  2  0
 20 21  1  0
 21 22  2  0
 22 23  1  0
 23 24  2  0
 24 25  1  0
 25 26  2  0
 26 27  1  0
 18  2  1  0
 27 19  1  0
 10  5  1  0
 16 11  1  0
 27 23  1  0
  4 28  1  0
  6 29  1  0
  7 30  1  0
  8 31  1  0
  9 32  1  0
 10 33  1  0
 12 34  1  0
 12 35  1  0
 13 36  1  0
 13 37  1  0
 14 38  1  0
 15 39  1  0
 15 40  1  0
 16 41  1  0
 16 42  1  0
 17 43  1  0
 17 44  1  0
 20 45  1  0
 21 46  1  0
 22 47  1  0
 26 48  1  0
M  END
>  <Energy>  (492) 
78.227688718457358

>  <compound_id>  (492) 
4125

>  <target_id>  (492) 
1

>  <reference_id>  (492) 
152

>  <inspiration_ids>  (492) 
[145, 152]

>  <energy_score>  (492) 
-51.40917275059395

>  <distance_score>  (492) 
0.5731219558933394

>  <path>  (492) 
/opt/xchem-fragalysis-2/maxwin/BulkDock/SCRATCH/505735/C4125-P152/C4125-P152.minimised.mol

>  <scratch_subdir>  (492) 
/opt/xchem-fragalysis-2/maxwin/BulkDock/SCRATCH/505735/C4125-P152

>  <fragmenstein_runtime>  (492) 
4.271148681640625

>  <fragmenstein_outcome>  (492) 
acceptable

>  <fragmenstein_mode>  (492) 
expansion

>  <fragmenstein_error>  (492) 


$$$$
C4143-P145
     RDKit          3D

 58 62  0  0  0  0  0  0  0  0999 V2000
   -0.6256   -2.8221   28.0869 O   0  0  0  0  0  0  0  0  0  0  0  0
    0.2327   -1.7859   28.5952 S   0  0  0  0  0  0  0  0  0  0  0  0
    1.6632   -1.7868   28.3767 O   0  0  0  0  0  0  0  0  0  0  0  0
    0.0376   -1.8342   30.2437 N   0  0  0  0  0  0  0  0  0  0  0  0
   -1.2996   -1.8978   30.8021 C   0  0  0  0  0  0  0  0  0  0  0  0
   -1.1468   -2.5285   32.1679 C   0  0  0  0  0  0  0  0  0  0  0  0
   -0.5995   -3.9377   32.2236 C   0  0  0  0  0  0  0  0  0  0  0  0
   -0.2022   -4.3129   33.5647 C   0  0  0  0  0  0  0  0  0  0  0  0
   -0.1433   -5.6019   33.9382 C   0  0  0  0  0  0  0  0  0  0  0  0
    0.2116   -5.7691   35.3214 N   0  0  0  0  0  0  0  0  0  0  0  0
    0.7663   -4.6638   36.1746 C   0  0  0  0  0  0  0  0  0  0  0  0
    1.6343   -5.2793   37.2650 C   0  0  0  0  0  0  0  0  0  0  0  0
    1.0035   -6.6210   37.5572 C   0  0  0  0  0  0  0  0  0  0  0  0
    1.7691   -7.5594   38.4336 C   0  0  0  0  0  0  0  0  0  0  0  0
    3.1061   -7.9069   38.2057 C   0  0  0  0  0  0  0  0  0  0  0  0
    3.7656   -8.7751   39.0768 C   0  0  0  0  0  0  0  0  0  0  0  0
    3.0996   -9.3014   40.1811 C   0  0  0  0  0  0  0  0  0  0  0  0
    1.7741   -8.9604   40.4214 C   0  0  0  0  0  0  0  0  0  0  0  0
    1.1150   -8.0932   39.5565 C   0  0  0  0  0  0  0  0  0  0  0  0
    0.6708   -7.2928   35.9335 S   0  0  0  0  0  0  0  0  0  0  0  0
    1.8641   -7.6848   35.2091 O   0  0  0  0  0  0  0  0  0  0  0  0
   -0.5086   -8.1177   35.9856 O   0  0  0  0  0  0  0  0  0  0  0  0
   -0.5005   -6.5510   32.9587 N   0  0  0  0  0  0  0  0  0  0  0  0
   -0.9723   -7.8329   32.9970 C   0  0  0  0  0  0  0  0  0  0  0  0
   -1.2055   -8.2899   31.7851 N   0  0  0  0  0  0  0  0  0  0  0  0
   -0.9325   -7.2864   30.8995 N   0  0  0  0  0  0  0  0  0  0  0  0
   -0.5947   -6.2252   31.6008 C   0  0  0  0  0  0  0  0  0  0  0  0
   -0.5533   -4.8494   31.2320 C   0  0  0  0  0  0  0  0  0  0  0  0
   -0.3741   -0.1721   28.2553 C   0  0  0  0  0  0  0  0  0  0  0  0
   -1.5081    0.0445   27.4848 C   0  0  0  0  0  0  0  0  0  0  0  0
   -1.9196    1.3561   27.2380 C   0  0  0  0  0  0  0  0  0  0  0  0
   -1.2352    2.4124   27.8235 C   0  0  0  0  0  0  0  0  0  0  0  0
   -1.6523    3.6991   27.6703 O   0  0  0  0  0  0  0  0  0  0  0  0
   -0.0984    2.1962   28.5885 C   0  0  0  0  0  0  0  0  0  0  0  0
    0.3492    0.9018   28.7925 C   0  0  0  0  0  0  0  0  0  0  0  0
    0.8098   -1.4346   30.7707 H   0  0  0  0  0  0  0  0  0  0  0  0
   -1.7030   -0.8852   30.9059 H   0  0  0  0  0  0  0  0  0  0  0  0
   -1.9861   -2.4790   30.1828 H   0  0  0  0  0  0  0  0  0  0  0  0
   -2.1272   -2.5155   32.6603 H   0  0  0  0  0  0  0  0  0  0  0  0
   -0.4990   -1.8677   32.7627 H   0  0  0  0  0  0  0  0  0  0  0  0
   -0.0356   -3.4795   34.2342 H   0  0  0  0  0  0  0  0  0  0  0  0
   -0.0720   -4.1161   36.6197 H   0  0  0  0  0  0  0  0  0  0  0  0
    1.4003   -3.9724   35.6114 H   0  0  0  0  0  0  0  0  0  0  0  0
    1.6878   -4.6378   38.1507 H   0  0  0  0  0  0  0  0  0  0  0  0
    2.6577   -5.3932   36.8863 H   0  0  0  0  0  0  0  0  0  0  0  0
    0.0112   -6.4427   37.9963 H   0  0  0  0  0  0  0  0  0  0  0  0
    3.6515   -7.5243   37.3460 H   0  0  0  0  0  0  0  0  0  0  0  0
    4.7990   -9.0546   38.8878 H   0  0  0  0  0  0  0  0  0  0  0  0
    3.6068   -9.9969   40.8449 H   0  0  0  0  0  0  0  0  0  0  0  0
    1.2469   -9.3983   41.2654 H   0  0  0  0  0  0  0  0  0  0  0  0
    0.0749   -7.8575   39.7685 H   0  0  0  0  0  0  0  0  0  0  0  0
   -1.1784   -8.3828   33.8959 H   0  0  0  0  0  0  0  0  0  0  0  0
   -0.7710   -4.5970   30.2002 H   0  0  0  0  0  0  0  0  0  0  0  0
   -2.0555   -0.7934   27.0596 H   0  0  0  0  0  0  0  0  0  0  0  0
   -2.7817    1.5400   26.6023 H   0  0  0  0  0  0  0  0  0  0  0  0
   -2.6135    3.7109   27.4966 H   0  0  0  0  0  0  0  0  0  0  0  0
    0.4392    3.0436   29.0054 H   0  0  0  0  0  0  0  0  0  0  0  0
    1.2583    0.7345   29.3640 H   0  0  0  0  0  0  0  0  0  0  0  0
  1  2  2  0
  2  3  2  0
  2  4  1  0
  4  5  1  0
  5  6  1  0
  6  7  1  0
  7  8  1  0
  8  9  2  0
  9 10  1  0
 10 11  1  0
 11 12  1  0
 12 13  1  0
 13 14  1  0
 14 15  2  0
 15 16  1  0
 16 17  2  0
 17 18  1  0
 18 19  2  0
 13 20  1  0
 20 21  2  0
 20 22  2  0
  9 23  1  0
 23 24  1  0
 24 25  2  0
 25 26  1  0
 26 27  2  0
 27 28  1  0
  2 29  1  0
 29 30  2  0
 30 31  1  0
 31 32  2  0
 32 33  1  0
 32 34  1  0
 34 35  2  0
 28  7  2  0
 35 29  1  0
 20 10  1  0
 27 23  1  0
 19 14  1  0
  4 36  1  0
  5 37  1  0
  5 38  1  0
  6 39  1  0
  6 40  1  0
  8 41  1  0
 11 42  1  0
 11 43  1  0
 12 44  1  0
 12 45  1  0
 13 46  1  0
 15 47  1  0
 16 48  1  0
 17 49  1  0
 18 50  1  0
 19 51  1  0
 24 52  1  0
 28 53  1  0
 30 54  1  0
 31 55  1  0
 33 56  1  0
 34 57  1  0
 35 58  1  0
M  END
>  <Energy>  (493) 
39.559116090474269

>  <compound_id>  (493) 
4143

>  <target_id>  (493) 
1

>  <reference_id>  (493) 
145

>  <inspiration_ids>  (493) 
[145, 162]

>  <energy_score>  (493) 
-57.04017450806093

>  <distance_score>  (493) 
1.1260184173125662

>  <path>  (493) 
/opt/xchem-fragalysis-2/maxwin/BulkDock/SCRATCH/505735/C4143-P145/C4143-P145.minimised.mol

>  <scratch_subdir>  (493) 
/opt/xchem-fragalysis-2/maxwin/BulkDock/SCRATCH/505735/C4143-P145

>  <fragmenstein_runtime>  (493) 
8.688591718673706

>  <fragmenstein_outcome>  (493) 
too moved

>  <fragmenstein_mode>  (493) 
expansion

>  <fragmenstein_error>  (493) 


$$$$
C4143-P162
     RDKit          3D

 58 62  0  0  0  0  0  0  0  0999 V2000
   -2.6078   -1.9883   28.6021 O   0  0  0  0  0  0  0  0  0  0  0  0
   -1.1949   -1.7115   28.6683 S   0  0  0  0  0  0  0  0  0  0  0  0
   -0.1303   -2.5688   28.2061 O   0  0  0  0  0  0  0  0  0  0  0  0
   -0.8178   -1.5804   30.3019 N   0  0  0  0  0  0  0  0  0  0  0  0
   -1.8543   -2.0016   31.2379 C   0  0  0  0  0  0  0  0  0  0  0  0
   -1.1397   -2.4958   32.4762 C   0  0  0  0  0  0  0  0  0  0  0  0
   -0.5447   -3.8848   32.4173 C   0  0  0  0  0  0  0  0  0  0  0  0
   -0.0615   -4.2841   33.7197 C   0  0  0  0  0  0  0  0  0  0  0  0
   -0.0126   -5.5779   34.0722 C   0  0  0  0  0  0  0  0  0  0  0  0
    0.4055   -5.7589   35.4274 N   0  0  0  0  0  0  0  0  0  0  0  0
    0.9000   -4.6814   36.3275 C   0  0  0  0  0  0  0  0  0  0  0  0
    1.7087   -5.3396   37.4329 C   0  0  0  0  0  0  0  0  0  0  0  0
    0.9907   -6.6413   37.7191 C   0  0  0  0  0  0  0  0  0  0  0  0
    1.7128   -7.6051   38.6077 C   0  0  0  0  0  0  0  0  0  0  0  0
    3.0257   -8.0320   38.3707 C   0  0  0  0  0  0  0  0  0  0  0  0
    3.6630   -8.8857   39.2715 C   0  0  0  0  0  0  0  0  0  0  0  0
    2.9995   -9.3166   40.4180 C   0  0  0  0  0  0  0  0  0  0  0  0
    1.6948   -8.9021   40.6639 C   0  0  0  0  0  0  0  0  0  0  0  0
    1.0552   -8.0549   39.7640 C   0  0  0  0  0  0  0  0  0  0  0  0
    0.6150   -7.3012   36.1016 S   0  0  0  0  0  0  0  0  0  0  0  0
    1.7664   -7.8630   35.4204 O   0  0  0  0  0  0  0  0  0  0  0  0
   -0.6874   -7.9159   36.1322 O   0  0  0  0  0  0  0  0  0  0  0  0
   -0.3881   -6.5160   33.0889 N   0  0  0  0  0  0  0  0  0  0  0  0
   -0.8009   -7.8190   33.0998 C   0  0  0  0  0  0  0  0  0  0  0  0
   -1.0157   -8.2598   31.8781 N   0  0  0  0  0  0  0  0  0  0  0  0
   -0.7909   -7.2252   31.0165 N   0  0  0  0  0  0  0  0  0  0  0  0
   -0.5153   -6.1614   31.7404 C   0  0  0  0  0  0  0  0  0  0  0  0
   -0.5479   -4.7735   31.4046 C   0  0  0  0  0  0  0  0  0  0  0  0
   -0.9442   -0.0632   28.1319 C   0  0  0  0  0  0  0  0  0  0  0  0
   -1.9043    0.5260   27.3081 C   0  0  0  0  0  0  0  0  0  0  0  0
   -1.8530    1.8924   27.0661 C   0  0  0  0  0  0  0  0  0  0  0  0
   -0.8222    2.6359   27.6301 C   0  0  0  0  0  0  0  0  0  0  0  0
   -0.7458    3.9838   27.4393 O   0  0  0  0  0  0  0  0  0  0  0  0
    0.1673    2.0410   28.4075 C   0  0  0  0  0  0  0  0  0  0  0  0
    0.1109    0.6804   28.6641 C   0  0  0  0  0  0  0  0  0  0  0  0
    0.0709   -2.0779   30.3985 H   0  0  0  0  0  0  0  0  0  0  0  0
   -2.4774   -1.1328   31.4762 H   0  0  0  0  0  0  0  0  0  0  0  0
   -2.5030   -2.7885   30.8503 H   0  0  0  0  0  0  0  0  0  0  0  0
   -1.8802   -2.4841   33.2890 H   0  0  0  0  0  0  0  0  0  0  0  0
   -0.3568   -1.7786   32.7613 H   0  0  0  0  0  0  0  0  0  0  0  0
    0.1672   -3.4614   34.3847 H   0  0  0  0  0  0  0  0  0  0  0  0
    0.0426   -4.1426   36.7460 H   0  0  0  0  0  0  0  0  0  0  0  0
    1.5625   -3.9779   35.8141 H   0  0  0  0  0  0  0  0  0  0  0  0
    1.7841   -4.6993   38.3179 H   0  0  0  0  0  0  0  0  0  0  0  0
    2.7296   -5.5169   37.0720 H   0  0  0  0  0  0  0  0  0  0  0  0
    0.0114   -6.4002   38.1576 H   0  0  0  0  0  0  0  0  0  0  0  0
    3.5682   -7.7164   37.4822 H   0  0  0  0  0  0  0  0  0  0  0  0
    4.6802   -9.2161   39.0771 H   0  0  0  0  0  0  0  0  0  0  0  0
    3.4996   -9.9805   41.1180 H   0  0  0  0  0  0  0  0  0  0  0  0
    1.1715   -9.2466   41.5516 H   0  0  0  0  0  0  0  0  0  0  0  0
    0.0312   -7.7533   39.9769 H   0  0  0  0  0  0  0  0  0  0  0  0
   -0.9700   -8.4063   33.9852 H   0  0  0  0  0  0  0  0  0  0  0  0
   -0.8447   -4.5099   30.3954 H   0  0  0  0  0  0  0  0  0  0  0  0
   -2.6949   -0.0766   26.8756 H   0  0  0  0  0  0  0  0  0  0  0  0
   -2.6199    2.3606   26.4550 H   0  0  0  0  0  0  0  0  0  0  0  0
   -1.6336    4.3152   27.2100 H   0  0  0  0  0  0  0  0  0  0  0  0
    0.9645    2.6510   28.8232 H   0  0  0  0  0  0  0  0  0  0  0  0
    0.8612    0.2190   29.2979 H   0  0  0  0  0  0  0  0  0  0  0  0
  1  2  2  0
  2  3  2  0
  2  4  1  0
  4  5  1  0
  5  6  1  0
  6  7  1  0
  7  8  1  0
  8  9  2  0
  9 10  1  0
 10 11  1  0
 11 12  1  0
 12 13  1  0
 13 14  1  0
 14 15  2  0
 15 16  1  0
 16 17  2  0
 17 18  1  0
 18 19  2  0
 13 20  1  0
 20 21  2  0
 20 22  2  0
  9 23  1  0
 23 24  1  0
 24 25  2  0
 25 26  1  0
 26 27  2  0
 27 28  1  0
  2 29  1  0
 29 30  2  0
 30 31  1  0
 31 32  2  0
 32 33  1  0
 32 34  1  0
 34 35  2  0
 28  7  2  0
 35 29  1  0
 20 10  1  0
 27 23  1  0
 19 14  1  0
  4 36  1  0
  5 37  1  0
  5 38  1  0
  6 39  1  0
  6 40  1  0
  8 41  1  0
 11 42  1  0
 11 43  1  0
 12 44  1  0
 12 45  1  0
 13 46  1  0
 15 47  1  0
 16 48  1  0
 17 49  1  0
 18 50  1  0
 19 51  1  0
 24 52  1  0
 28 53  1  0
 30 54  1  0
 31 55  1  0
 33 56  1  0
 34 57  1  0
 35 58  1  0
M  END
>  <Energy>  (494) 
44.4101066818261

>  <compound_id>  (494) 
4143

>  <target_id>  (494) 
1

>  <reference_id>  (494) 
162

>  <inspiration_ids>  (494) 
[145, 162]

>  <energy_score>  (494) 
-52.18918391671001

>  <distance_score>  (494) 
1.0791751271421977

>  <path>  (494) 
/opt/xchem-fragalysis-2/maxwin/BulkDock/SCRATCH/505735/C4143-P162/C4143-P162.minimised.mol

>  <scratch_subdir>  (494) 
/opt/xchem-fragalysis-2/maxwin/BulkDock/SCRATCH/505735/C4143-P162

>  <fragmenstein_runtime>  (494) 
8.60537600517273

>  <fragmenstein_outcome>  (494) 
too moved

>  <fragmenstein_mode>  (494) 
expansion

>  <fragmenstein_error>  (494) 


$$$$
C4143-P145
     RDKit          3D

 58 62  0  0  0  0  0  0  0  0999 V2000
    0.6935    2.0494   31.9835 O   0  0  0  0  0  0  0  0  0  0  0  0
    0.9731    1.2005   30.8463 S   0  0  0  0  0  0  0  0  0  0  0  0
    1.5064    1.7043   29.6042 O   0  0  0  0  0  0  0  0  0  0  0  0
   -0.4553    0.3790   30.4862 N   0  0  0  0  0  0  0  0  0  0  0  0
   -0.9619   -0.6927   31.3929 C   0  0  0  0  0  0  0  0  0  0  0  0
   -0.7844   -2.0926   30.7412 C   0  0  0  0  0  0  0  0  0  0  0  0
   -0.5435   -3.4735   31.4401 C   0  0  0  0  0  0  0  0  0  0  0  0
   -0.3617   -3.7396   32.8899 C   0  0  0  0  0  0  0  0  0  0  0  0
   -0.2798   -5.0141   33.3908 C   0  0  0  0  0  0  0  0  0  0  0  0
   -0.0049   -5.1574   34.8173 N   0  0  0  0  0  0  0  0  0  0  0  0
    0.4217   -4.0485   35.7154 C   0  0  0  0  0  0  0  0  0  0  0  0
    1.3539   -4.6362   36.7871 C   0  0  0  0  0  0  0  0  0  0  0  0
    0.7582   -5.9845   37.1353 C   0  0  0  0  0  0  0  0  0  0  0  0
    1.5299   -6.9316   38.0147 C   0  0  0  0  0  0  0  0  0  0  0  0
    2.8504   -7.3263   37.7652 C   0  0  0  0  0  0  0  0  0  0  0  0
    3.4907   -8.2422   38.6082 C   0  0  0  0  0  0  0  0  0  0  0  0
    2.8255   -8.7711   39.7119 C   0  0  0  0  0  0  0  0  0  0  0  0
    1.5222   -8.3765   39.9851 C   0  0  0  0  0  0  0  0  0  0  0  0
    0.8859   -7.4593   39.1496 C   0  0  0  0  0  0  0  0  0  0  0  0
    0.3954   -6.6902   35.5264 S   0  0  0  0  0  0  0  0  0  0  0  0
    1.5820   -7.1818   34.8503 O   0  0  0  0  0  0  0  0  0  0  0  0
   -0.8076   -7.4805   35.6427 O   0  0  0  0  0  0  0  0  0  0  0  0
   -0.5024   -6.0741   32.4825 N   0  0  0  0  0  0  0  0  0  0  0  0
   -0.8664   -7.3932   32.6015 C   0  0  0  0  0  0  0  0  0  0  0  0
   -0.9954   -7.9603   31.4219 N   0  0  0  0  0  0  0  0  0  0  0  0
   -0.7254   -7.0130   30.4806 N   0  0  0  0  0  0  0  0  0  0  0  0
   -0.5116   -5.8752   31.1084 C   0  0  0  0  0  0  0  0  0  0  0  0
   -0.4630   -4.5448   30.6108 C   0  0  0  0  0  0  0  0  0  0  0  0
    1.9900   -0.1515   31.3903 C   0  0  0  0  0  0  0  0  0  0  0  0
    2.3887   -1.1369   30.4724 C   0  0  0  0  0  0  0  0  0  0  0  0
    2.7816   -2.3828   30.9526 C   0  0  0  0  0  0  0  0  0  0  0  0
    2.7898   -2.6091   32.3250 C   0  0  0  0  0  0  0  0  0  0  0  0
    2.9934   -3.8826   32.7601 O   0  0  0  0  0  0  0  0  0  0  0  0
    2.5242   -1.5897   33.2348 C   0  0  0  0  0  0  0  0  0  0  0  0
    2.1219   -0.3464   32.7664 C   0  0  0  0  0  0  0  0  0  0  0  0
   -0.6420    0.2969   29.4846 H   0  0  0  0  0  0  0  0  0  0  0  0
   -2.0319   -0.5075   31.5466 H   0  0  0  0  0  0  0  0  0  0  0  0
   -0.5077   -0.6406   32.3832 H   0  0  0  0  0  0  0  0  0  0  0  0
   -0.0111   -2.0138   29.9676 H   0  0  0  0  0  0  0  0  0  0  0  0
   -1.7080   -2.2361   30.1569 H   0  0  0  0  0  0  0  0  0  0  0  0
   -0.2826   -2.8565   33.5099 H   0  0  0  0  0  0  0  0  0  0  0  0
   -0.4701   -3.6114   36.1777 H   0  0  0  0  0  0  0  0  0  0  0  0
    0.9694   -3.2671   35.1879 H   0  0  0  0  0  0  0  0  0  0  0  0
    2.3624   -4.7459   36.3691 H   0  0  0  0  0  0  0  0  0  0  0  0
    1.4291   -3.9769   37.6578 H   0  0  0  0  0  0  0  0  0  0  0  0
   -0.2276   -5.8049   37.5884 H   0  0  0  0  0  0  0  0  0  0  0  0
    3.3958   -6.9512   36.9021 H   0  0  0  0  0  0  0  0  0  0  0  0
    4.5088   -8.5578   38.3935 H   0  0  0  0  0  0  0  0  0  0  0  0
    3.3148   -9.5030   40.3495 H   0  0  0  0  0  0  0  0  0  0  0  0
    0.9950   -8.8030   40.8352 H   0  0  0  0  0  0  0  0  0  0  0  0
   -0.1339   -7.1725   39.3952 H   0  0  0  0  0  0  0  0  0  0  0  0
   -1.0799   -7.9083   33.5191 H   0  0  0  0  0  0  0  0  0  0  0  0
   -0.5229   -4.4208   29.5313 H   0  0  0  0  0  0  0  0  0  0  0  0
    2.2890   -0.9690   29.4019 H   0  0  0  0  0  0  0  0  0  0  0  0
    3.0139   -3.1894   30.2627 H   0  0  0  0  0  0  0  0  0  0  0  0
    3.2943   -3.8541   33.6833 H   0  0  0  0  0  0  0  0  0  0  0  0
    2.5735   -1.7615   34.3049 H   0  0  0  0  0  0  0  0  0  0  0  0
    1.8278    0.4262   33.4741 H   0  0  0  0  0  0  0  0  0  0  0  0
  1  2  2  0
  2  3  2  0
  2  4  1  0
  4  5  1  0
  5  6  1  0
  6  7  1  0
  7  8  1  0
  8  9  2  0
  9 10  1  0
 10 11  1  0
 11 12  1  0
 12 13  1  0
 13 14  1  0
 14 15  2  0
 15 16  1  0
 16 17  2  0
 17 18  1  0
 18 19  2  0
 13 20  1  0
 20 21  2  0
 20 22  2  0
  9 23  1  0
 23 24  1  0
 24 25  2  0
 25 26  1  0
 26 27  2  0
 27 28  1  0
  2 29  1  0
 29 30  2  0
 30 31  1  0
 31 32  2  0
 32 33  1  0
 32 34  1  0
 34 35  2  0
 28  7  2  0
 35 29  1  0
 20 10  1  0
 27 23  1  0
 19 14  1  0
  4 36  1  0
  5 37  1  0
  5 38  1  0
  6 39  1  0
  6 40  1  0
  8 41  1  0
 11 42  1  0
 11 43  1  0
 12 44  1  0
 12 45  1  0
 13 46  1  0
 15 47  1  0
 16 48  1  0
 17 49  1  0
 18 50  1  0
 19 51  1  0
 24 52  1  0
 28 53  1  0
 30 54  1  0
 31 55  1  0
 33 56  1  0
 34 57  1  0
 35 58  1  0
M  END
>  <Energy>  (495) 
52.324241685704131

>  <compound_id>  (495) 
4143

>  <target_id>  (495) 
1

>  <reference_id>  (495) 
145

>  <inspiration_ids>  (495) 
[145, 163]

>  <energy_score>  (495) 
-44.27504891283161

>  <distance_score>  (495) 
1.5051490976900508

>  <path>  (495) 
/opt/xchem-fragalysis-2/maxwin/BulkDock/SCRATCH/505735/C4143-P145/C4143-P145.minimised.mol

>  <scratch_subdir>  (495) 
/opt/xchem-fragalysis-2/maxwin/BulkDock/SCRATCH/505735/C4143-P145

>  <fragmenstein_runtime>  (495) 
11.081789255142212

>  <fragmenstein_outcome>  (495) 
too moved

>  <fragmenstein_mode>  (495) 
expansion

>  <fragmenstein_error>  (495) 


$$$$
C4143-P163
     RDKit          3D

 58 62  0  0  0  0  0  0  0  0999 V2000
    1.2838    2.1632   31.0488 O   0  0  0  0  0  0  0  0  0  0  0  0
    1.1036    0.9464   30.2915 S   0  0  0  0  0  0  0  0  0  0  0  0
    1.3964    0.8665   28.8794 O   0  0  0  0  0  0  0  0  0  0  0  0
   -0.5383    0.4774   30.4740 N   0  0  0  0  0  0  0  0  0  0  0  0
   -0.8634   -0.9905   30.2778 C   0  0  0  0  0  0  0  0  0  0  0  0
   -1.0347   -1.7233   31.6452 C   0  0  0  0  0  0  0  0  0  0  0  0
   -0.7364   -3.2468   31.8528 C   0  0  0  0  0  0  0  0  0  0  0  0
   -0.4900   -3.6766   33.2578 C   0  0  0  0  0  0  0  0  0  0  0  0
   -0.3067   -4.9755   33.6198 C   0  0  0  0  0  0  0  0  0  0  0  0
    0.0193   -5.2012   35.0190 N   0  0  0  0  0  0  0  0  0  0  0  0
    0.4063   -4.1269   35.9746 C   0  0  0  0  0  0  0  0  0  0  0  0
    1.3093   -4.7510   37.0405 C   0  0  0  0  0  0  0  0  0  0  0  0
    0.7182   -6.1204   37.3102 C   0  0  0  0  0  0  0  0  0  0  0  0
    1.5156   -7.0703   38.1610 C   0  0  0  0  0  0  0  0  0  0  0  0
    2.8606   -7.3838   37.9231 C   0  0  0  0  0  0  0  0  0  0  0  0
    3.5461   -8.2658   38.7652 C   0  0  0  0  0  0  0  0  0  0  0  0
    2.9009   -8.8417   39.8565 C   0  0  0  0  0  0  0  0  0  0  0  0
    1.5695   -8.5366   40.1100 C   0  0  0  0  0  0  0  0  0  0  0  0
    0.8852   -7.6573   39.2722 C   0  0  0  0  0  0  0  0  0  0  0  0
    0.3855   -6.7573   35.6674 S   0  0  0  0  0  0  0  0  0  0  0  0
    1.5874   -7.2342   35.0089 O   0  0  0  0  0  0  0  0  0  0  0  0
   -0.8330   -7.5331   35.7104 O   0  0  0  0  0  0  0  0  0  0  0  0
   -0.4615   -5.9390   32.6076 N   0  0  0  0  0  0  0  0  0  0  0  0
   -0.6347   -7.2996   32.5996 C   0  0  0  0  0  0  0  0  0  0  0  0
   -0.7505   -7.7573   31.3738 N   0  0  0  0  0  0  0  0  0  0  0  0
   -0.6603   -6.6862   30.5296 N   0  0  0  0  0  0  0  0  0  0  0  0
   -0.5642   -5.5907   31.2596 C   0  0  0  0  0  0  0  0  0  0  0  0
   -0.6629   -4.2024   30.8973 C   0  0  0  0  0  0  0  0  0  0  0  0
    1.9542   -0.3717   31.1137 C   0  0  0  0  0  0  0  0  0  0  0  0
    2.3828   -1.4907   30.3779 C   0  0  0  0  0  0  0  0  0  0  0  0
    2.7267   -2.6520   31.0573 C   0  0  0  0  0  0  0  0  0  0  0  0
    2.6676   -2.6658   32.4459 C   0  0  0  0  0  0  0  0  0  0  0  0
    2.8637   -3.8602   33.0694 O   0  0  0  0  0  0  0  0  0  0  0  0
    2.3571   -1.5208   33.1791 C   0  0  0  0  0  0  0  0  0  0  0  0
    1.9986   -0.3564   32.5081 C   0  0  0  0  0  0  0  0  0  0  0  0
   -1.0274    1.0013   29.7373 H   0  0  0  0  0  0  0  0  0  0  0  0
   -0.1349   -1.4758   29.6258 H   0  0  0  0  0  0  0  0  0  0  0  0
   -1.8138   -1.0386   29.7339 H   0  0  0  0  0  0  0  0  0  0  0  0
   -2.0835   -1.5823   31.9463 H   0  0  0  0  0  0  0  0  0  0  0  0
   -0.4715   -1.1726   32.4032 H   0  0  0  0  0  0  0  0  0  0  0  0
   -0.4646   -2.8626   33.9720 H   0  0  0  0  0  0  0  0  0  0  0  0
   -0.5013   -3.7149   36.4293 H   0  0  0  0  0  0  0  0  0  0  0  0
    0.9669   -3.3218   35.4932 H   0  0  0  0  0  0  0  0  0  0  0  0
    2.3298   -4.8293   36.6452 H   0  0  0  0  0  0  0  0  0  0  0  0
    1.3545   -4.1320   37.9424 H   0  0  0  0  0  0  0  0  0  0  0  0
   -0.2740   -5.9766   37.7618 H   0  0  0  0  0  0  0  0  0  0  0  0
    3.3941   -6.9623   37.0741 H   0  0  0  0  0  0  0  0  0  0  0  0
    4.5853   -8.5127   38.5628 H   0  0  0  0  0  0  0  0  0  0  0  0
    3.4279   -9.5426   40.4984 H   0  0  0  0  0  0  0  0  0  0  0  0
    1.0530   -9.0113   40.9409 H   0  0  0  0  0  0  0  0  0  0  0  0
   -0.1589   -7.4527   39.4975 H   0  0  0  0  0  0  0  0  0  0  0  0
   -0.7084   -7.9225   33.4717 H   0  0  0  0  0  0  0  0  0  0  0  0
   -0.7992   -3.9692   29.8446 H   0  0  0  0  0  0  0  0  0  0  0  0
    2.3598   -1.4846   29.2898 H   0  0  0  0  0  0  0  0  0  0  0  0
    2.9887   -3.5533   30.5106 H   0  0  0  0  0  0  0  0  0  0  0  0
    3.1074   -3.6900   33.9936 H   0  0  0  0  0  0  0  0  0  0  0  0
    2.3381   -1.5348   34.2639 H   0  0  0  0  0  0  0  0  0  0  0  0
    1.6789    0.5212   33.0659 H   0  0  0  0  0  0  0  0  0  0  0  0
  1  2  2  0
  2  3  2  0
  2  4  1  0
  4  5  1  0
  5  6  1  0
  6  7  1  0
  7  8  1  0
  8  9  2  0
  9 10  1  0
 10 11  1  0
 11 12  1  0
 12 13  1  0
 13 14  1  0
 14 15  2  0
 15 16  1  0
 16 17  2  0
 17 18  1  0
 18 19  2  0
 13 20  1  0
 20 21  2  0
 20 22  2  0
  9 23  1  0
 23 24  1  0
 24 25  2  0
 25 26  1  0
 26 27  2  0
 27 28  1  0
  2 29  1  0
 29 30  2  0
 30 31  1  0
 31 32  2  0
 32 33  1  0
 32 34  1  0
 34 35  2  0
 28  7  2  0
 35 29  1  0
 20 10  1  0
 27 23  1  0
 19 14  1  0
  4 36  1  0
  5 37  1  0
  5 38  1  0
  6 39  1  0
  6 40  1  0
  8 41  1  0
 11 42  1  0
 11 43  1  0
 12 44  1  0
 12 45  1  0
 13 46  1  0
 15 47  1  0
 16 48  1  0
 17 49  1  0
 18 50  1  0
 19 51  1  0
 24 52  1  0
 28 53  1  0
 30 54  1  0
 31 55  1  0
 33 56  1  0
 34 57  1  0
 35 58  1  0
M  END
>  <Energy>  (496) 
42.655780676978722

>  <compound_id>  (496) 
4143

>  <target_id>  (496) 
1

>  <reference_id>  (496) 
163

>  <inspiration_ids>  (496) 
[145, 163]

>  <energy_score>  (496) 
-53.943509921556576

>  <distance_score>  (496) 
1.5164897513418039

>  <path>  (496) 
/opt/xchem-fragalysis-2/maxwin/BulkDock/SCRATCH/505735/C4143-P163/C4143-P163.minimised.mol

>  <scratch_subdir>  (496) 
/opt/xchem-fragalysis-2/maxwin/BulkDock/SCRATCH/505735/C4143-P163

>  <fragmenstein_runtime>  (496) 
7.659601449966431

>  <fragmenstein_outcome>  (496) 
too moved

>  <fragmenstein_mode>  (496) 
expansion

>  <fragmenstein_error>  (496) 


$$$$
C4133-P145
     RDKit          3D

 58 62  0  0  0  0  0  0  0  0999 V2000
    6.2592   -8.5118   25.7871 N   0  0  0  0  0  0  0  0  0  0  0  0
    5.9316   -7.2871   26.2850 C   0  0  0  0  0  0  0  0  0  0  0  0
    5.1487   -6.4400   25.5287 C   0  0  0  0  0  0  0  0  0  0  0  0
    4.6356   -5.3190   26.1316 C   0  0  0  0  0  0  0  0  0  0  0  0
    4.9025   -5.1294   27.4763 C   0  0  0  0  0  0  0  0  0  0  0  0
    4.2555   -3.7494   28.3139 S   0  0  0  0  0  0  0  0  0  0  0  0
    5.1852   -3.3586   29.3491 O   0  0  0  0  0  0  0  0  0  0  0  0
    3.7441   -2.8082   27.3417 O   0  0  0  0  0  0  0  0  0  0  0  0
    2.8443   -4.3989   29.0866 N   0  0  0  0  0  0  0  0  0  0  0  0
    2.4657   -3.4384   30.2062 C   0  0  0  0  0  0  0  0  0  0  0  0
    0.9718   -3.4320   30.5125 C   0  0  0  0  0  0  0  0  0  0  0  0
    0.4967   -4.6464   31.2615 C   0  0  0  0  0  0  0  0  0  0  0  0
    0.5772   -4.6635   32.7272 C   0  0  0  0  0  0  0  0  0  0  0  0
    0.0640   -5.7057   33.4168 C   0  0  0  0  0  0  0  0  0  0  0  0
    0.1831   -5.6783   34.8452 N   0  0  0  0  0  0  0  0  0  0  0  0
    0.4011   -4.4653   35.6709 C   0  0  0  0  0  0  0  0  0  0  0  0
    0.6268   -4.9584   37.1031 C   0  0  0  0  0  0  0  0  0  0  0  0
    1.5964   -6.1343   36.9651 C   0  0  0  0  0  0  0  0  0  0  0  0
    1.8162   -7.0567   38.1341 C   0  0  0  0  0  0  0  0  0  0  0  0
    2.9806   -7.8460   38.1626 C   0  0  0  0  0  0  0  0  0  0  0  0
    3.2045   -8.7563   39.1959 C   0  0  0  0  0  0  0  0  0  0  0  0
    2.2688   -8.8942   40.2155 C   0  0  0  0  0  0  0  0  0  0  0  0
    1.1172   -8.1128   40.2099 C   0  0  0  0  0  0  0  0  0  0  0  0
    0.8929   -7.1966   39.1801 C   0  0  0  0  0  0  0  0  0  0  0  0
    0.8874   -7.0671   35.5910 S   0  0  0  0  0  0  0  0  0  0  0  0
    1.9225   -7.5731   34.7098 O   0  0  0  0  0  0  0  0  0  0  0  0
   -0.2117   -7.8935   36.0308 O   0  0  0  0  0  0  0  0  0  0  0  0
   -0.5614   -6.7352   32.6943 N   0  0  0  0  0  0  0  0  0  0  0  0
   -1.2833   -7.8369   33.0593 C   0  0  0  0  0  0  0  0  0  0  0  0
   -1.6732   -8.5031   31.9936 N   0  0  0  0  0  0  0  0  0  0  0  0
   -1.2379   -7.8293   30.8885 N   0  0  0  0  0  0  0  0  0  0  0  0
   -0.6093   -6.7595   31.3083 C   0  0  0  0  0  0  0  0  0  0  0  0
   -0.0593   -5.6739   30.5974 C   0  0  0  0  0  0  0  0  0  0  0  0
    5.7353   -5.9954   28.1543 C   0  0  0  0  0  0  0  0  0  0  0  0
    6.2469   -7.0872   27.5749 N   0  0  0  0  0  0  0  0  0  0  0  0
    6.3519   -8.5900   24.7730 H   0  0  0  0  0  0  0  0  0  0  0  0
    6.9460   -8.9946   26.3482 H   0  0  0  0  0  0  0  0  0  0  0  0
    4.9318   -6.6872   24.4963 H   0  0  0  0  0  0  0  0  0  0  0  0
    4.0201   -4.6203   25.5805 H   0  0  0  0  0  0  0  0  0  0  0  0
    2.1132   -4.3835   28.3671 H   0  0  0  0  0  0  0  0  0  0  0  0
    3.0555   -3.6858   31.0957 H   0  0  0  0  0  0  0  0  0  0  0  0
    2.7188   -2.4133   29.9075 H   0  0  0  0  0  0  0  0  0  0  0  0
    0.7328   -2.5382   31.1039 H   0  0  0  0  0  0  0  0  0  0  0  0
    0.4092   -3.3199   29.5757 H   0  0  0  0  0  0  0  0  0  0  0  0
    1.0713   -3.8204   33.1943 H   0  0  0  0  0  0  0  0  0  0  0  0
    1.2868   -3.9159   35.3369 H   0  0  0  0  0  0  0  0  0  0  0  0
   -0.4731   -3.8090   35.6245 H   0  0  0  0  0  0  0  0  0  0  0  0
   -0.3384   -5.2728   37.5172 H   0  0  0  0  0  0  0  0  0  0  0  0
    1.0270   -4.1693   37.7472 H   0  0  0  0  0  0  0  0  0  0  0  0
    2.5633   -5.7498   36.6138 H   0  0  0  0  0  0  0  0  0  0  0  0
    3.7209   -7.7765   37.3673 H   0  0  0  0  0  0  0  0  0  0  0  0
    4.0961   -9.3776   39.1955 H   0  0  0  0  0  0  0  0  0  0  0  0
    2.4215   -9.6298   41.0015 H   0  0  0  0  0  0  0  0  0  0  0  0
    0.3801   -8.2380   40.9993 H   0  0  0  0  0  0  0  0  0  0  0  0
   -0.0310   -6.6256   39.2084 H   0  0  0  0  0  0  0  0  0  0  0  0
   -1.5152   -8.1082   34.0769 H   0  0  0  0  0  0  0  0  0  0  0  0
   -0.1496   -5.6712   29.5187 H   0  0  0  0  0  0  0  0  0  0  0  0
    6.0079   -5.8477   29.1950 H   0  0  0  0  0  0  0  0  0  0  0  0
  1  2  1  0
  2  3  2  0
  3  4  1  0
  4  5  2  0
  5  6  1  0
  6  7  2  0
  6  8  2  0
  6  9  1  0
  9 10  1  0
 10 11  1  0
 11 12  1  0
 12 13  1  0
 13 14  2  0
 14 15  1  0
 15 16  1  0
 16 17  1  0
 17 18  1  0
 18 19  1  0
 19 20  2  0
 20 21  1  0
 21 22  2  0
 22 23  1  0
 23 24  2  0
 18 25  1  0
 25 26  2  0
 25 27  2  0
 14 28  1  0
 28 29  1  0
 29 30  2  0
 30 31  1  0
 31 32  2  0
 32 33  1  0
  5 34  1  0
 34 35  2  0
 35  2  1  0
 33 12  2  0
 25 15  1  0
 32 28  1  0
 24 19  1  0
  1 36  1  0
  1 37  1  0
  3 38  1  0
  4 39  1  0
  9 40  1  0
 10 41  1  0
 10 42  1  0
 11 43  1  0
 11 44  1  0
 13 45  1  0
 16 46  1  0
 16 47  1  0
 17 48  1  0
 17 49  1  0
 18 50  1  0
 20 51  1  0
 21 52  1  0
 22 53  1  0
 23 54  1  0
 24 55  1  0
 29 56  1  0
 33 57  1  0
 34 58  1  0
M  END
>  <Energy>  (497) 
-26.324513978228737

>  <compound_id>  (497) 
4133

>  <target_id>  (497) 
1

>  <reference_id>  (497) 
145

>  <inspiration_ids>  (497) 
[145, 175]

>  <energy_score>  (497) 
-70.23938893713652

>  <distance_score>  (497) 
1.6542330248252537

>  <path>  (497) 
/opt/xchem-fragalysis-2/maxwin/BulkDock/SCRATCH/505735/C4133-P145/C4133-P145.minimised.mol

>  <scratch_subdir>  (497) 
/opt/xchem-fragalysis-2/maxwin/BulkDock/SCRATCH/505735/C4133-P145

>  <fragmenstein_runtime>  (497) 
11.28026270866394

>  <fragmenstein_outcome>  (497) 
too moved

>  <fragmenstein_mode>  (497) 
expansion

>  <fragmenstein_error>  (497) 


$$$$
C4133-P175
     RDKit          3D

 58 62  0  0  0  0  0  0  0  0999 V2000
    8.7015   -6.0050   26.2265 N   0  0  0  0  0  0  0  0  0  0  0  0
    7.3530   -6.0729   26.4667 C   0  0  0  0  0  0  0  0  0  0  0  0
    6.4912   -6.1331   25.3945 C   0  0  0  0  0  0  0  0  0  0  0  0
    5.1568   -6.0741   25.6739 C   0  0  0  0  0  0  0  0  0  0  0  0
    4.7610   -5.9319   27.0010 C   0  0  0  0  0  0  0  0  0  0  0  0
    3.0850   -5.8622   27.3623 S   0  0  0  0  0  0  0  0  0  0  0  0
    2.4753   -5.5028   26.0987 O   0  0  0  0  0  0  0  0  0  0  0  0
    2.7810   -7.0904   28.0690 O   0  0  0  0  0  0  0  0  0  0  0  0
    2.6354   -4.5630   28.2589 N   0  0  0  0  0  0  0  0  0  0  0  0
    3.1114   -4.0139   29.5177 C   0  0  0  0  0  0  0  0  0  0  0  0
    2.9700   -4.9428   30.7081 C   0  0  0  0  0  0  0  0  0  0  0  0
    1.6146   -5.2804   31.3017 C   0  0  0  0  0  0  0  0  0  0  0  0
    1.4128   -5.0726   32.7423 C   0  0  0  0  0  0  0  0  0  0  0  0
    0.4729   -5.7941   33.3884 C   0  0  0  0  0  0  0  0  0  0  0  0
    0.4255   -5.6903   34.8084 N   0  0  0  0  0  0  0  0  0  0  0  0
    0.6236   -4.4602   35.6065 C   0  0  0  0  0  0  0  0  0  0  0  0
    0.8001   -4.9129   37.0633 C   0  0  0  0  0  0  0  0  0  0  0  0
    1.7143   -6.1370   36.9843 C   0  0  0  0  0  0  0  0  0  0  0  0
    1.9038   -7.0094   38.1963 C   0  0  0  0  0  0  0  0  0  0  0  0
    3.1281   -7.6820   38.3642 C   0  0  0  0  0  0  0  0  0  0  0  0
    3.3404   -8.5275   39.4543 C   0  0  0  0  0  0  0  0  0  0  0  0
    2.3311   -8.7178   40.3925 C   0  0  0  0  0  0  0  0  0  0  0  0
    1.1107   -8.0656   40.2379 C   0  0  0  0  0  0  0  0  0  0  0  0
    0.8972   -7.2170   39.1487 C   0  0  0  0  0  0  0  0  0  0  0  0
    0.9785   -7.0925   35.6514 S   0  0  0  0  0  0  0  0  0  0  0  0
    2.0113   -7.7310   34.8541 O   0  0  0  0  0  0  0  0  0  0  0  0
   -0.2181   -7.7600   36.0978 O   0  0  0  0  0  0  0  0  0  0  0  0
   -0.3497   -6.6575   32.6513 N   0  0  0  0  0  0  0  0  0  0  0  0
   -1.3227   -7.5504   33.0011 C   0  0  0  0  0  0  0  0  0  0  0  0
   -1.8429   -8.1021   31.9239 N   0  0  0  0  0  0  0  0  0  0  0  0
   -1.1962   -7.5910   30.8297 N   0  0  0  0  0  0  0  0  0  0  0  0
   -0.2952   -6.7420   31.2706 C   0  0  0  0  0  0  0  0  0  0  0  0
    0.7339   -6.0303   30.6103 C   0  0  0  0  0  0  0  0  0  0  0  0
    5.6829   -5.9986   28.0131 C   0  0  0  0  0  0  0  0  0  0  0  0
    6.9915   -6.0567   27.7636 N   0  0  0  0  0  0  0  0  0  0  0  0
    8.9015   -5.2244   25.5900 H   0  0  0  0  0  0  0  0  0  0  0  0
    9.1722   -5.8797   27.1167 H   0  0  0  0  0  0  0  0  0  0  0  0
    6.8489   -6.2130   24.3747 H   0  0  0  0  0  0  0  0  0  0  0  0
    4.4438   -6.1574   24.8643 H   0  0  0  0  0  0  0  0  0  0  0  0
    2.0657   -3.9177   27.7022 H   0  0  0  0  0  0  0  0  0  0  0  0
    2.5608   -3.0869   29.7164 H   0  0  0  0  0  0  0  0  0  0  0  0
    4.1602   -3.7240   29.3888 H   0  0  0  0  0  0  0  0  0  0  0  0
    3.6255   -4.5667   31.5040 H   0  0  0  0  0  0  0  0  0  0  0  0
    3.4004   -5.8853   30.3800 H   0  0  0  0  0  0  0  0  0  0  0  0
    2.1040   -4.4123   33.2510 H   0  0  0  0  0  0  0  0  0  0  0  0
    1.5157   -3.9146   35.2862 H   0  0  0  0  0  0  0  0  0  0  0  0
   -0.2470   -3.8041   35.5129 H   0  0  0  0  0  0  0  0  0  0  0  0
   -0.1836   -5.1664   37.4756 H   0  0  0  0  0  0  0  0  0  0  0  0
    1.2270   -4.1196   37.6850 H   0  0  0  0  0  0  0  0  0  0  0  0
    2.6961   -5.8074   36.6174 H   0  0  0  0  0  0  0  0  0  0  0  0
    3.9301   -7.5647   37.6376 H   0  0  0  0  0  0  0  0  0  0  0  0
    4.2900   -9.0438   39.5665 H   0  0  0  0  0  0  0  0  0  0  0  0
    2.4877   -9.3827   41.2371 H   0  0  0  0  0  0  0  0  0  0  0  0
    0.3113   -8.2342   40.9551 H   0  0  0  0  0  0  0  0  0  0  0  0
   -0.0823   -6.7565   39.0459 H   0  0  0  0  0  0  0  0  0  0  0  0
   -1.6115   -7.7650   34.0198 H   0  0  0  0  0  0  0  0  0  0  0  0
    0.9003   -6.2595   29.5751 H   0  0  0  0  0  0  0  0  0  0  0  0
    5.4132   -5.9921   29.0610 H   0  0  0  0  0  0  0  0  0  0  0  0
  1  2  1  0
  2  3  2  0
  3  4  1  0
  4  5  2  0
  5  6  1  0
  6  7  2  0
  6  8  2  0
  6  9  1  0
  9 10  1  0
 10 11  1  0
 11 12  1  0
 12 13  1  0
 13 14  2  0
 14 15  1  0
 15 16  1  0
 16 17  1  0
 17 18  1  0
 18 19  1  0
 19 20  2  0
 20 21  1  0
 21 22  2  0
 22 23  1  0
 23 24  2  0
 18 25  1  0
 25 26  2  0
 25 27  2  0
 14 28  1  0
 28 29  1  0
 29 30  2  0
 30 31  1  0
 31 32  2  0
 32 33  1  0
  5 34  1  0
 34 35  2  0
 35  2  1  0
 33 12  2  0
 25 15  1  0
 32 28  1  0
 24 19  1  0
  1 36  1  0
  1 37  1  0
  3 38  1  0
  4 39  1  0
  9 40  1  0
 10 41  1  0
 10 42  1  0
 11 43  1  0
 11 44  1  0
 13 45  1  0
 16 46  1  0
 16 47  1  0
 17 48  1  0
 17 49  1  0
 18 50  1  0
 20 51  1  0
 21 52  1  0
 22 53  1  0
 23 54  1  0
 24 55  1  0
 29 56  1  0
 33 57  1  0
 34 58  1  0
M  END
>  <Energy>  (498) 
-9.5867355686371738

>  <compound_id>  (498) 
4133

>  <target_id>  (498) 
1

>  <reference_id>  (498) 
175

>  <inspiration_ids>  (498) 
[145, 175]

>  <energy_score>  (498) 
-53.501610527547285

>  <distance_score>  (498) 
1.8649191038396493

>  <path>  (498) 
/opt/xchem-fragalysis-2/maxwin/BulkDock/SCRATCH/505735/C4133-P175/C4133-P175.minimised.mol

>  <scratch_subdir>  (498) 
/opt/xchem-fragalysis-2/maxwin/BulkDock/SCRATCH/505735/C4133-P175

>  <fragmenstein_runtime>  (498) 
10.62898302078247

>  <fragmenstein_outcome>  (498) 
too moved

>  <fragmenstein_mode>  (498) 
expansion

>  <fragmenstein_error>  (498) 


$$$$
C4133-P145
     RDKit          3D

 58 62  0  0  0  0  0  0  0  0999 V2000
   -1.5474   -1.7438   28.6370 N   0  0  0  0  0  0  0  0  0  0  0  0
   -0.2042   -2.0132   28.3615 C   0  0  0  0  0  0  0  0  0  0  0  0
    0.2353   -3.3179   28.2648 C   0  0  0  0  0  0  0  0  0  0  0  0
    1.5542   -3.5395   27.9028 C   0  0  0  0  0  0  0  0  0  0  0  0
    2.3875   -2.4777   27.6256 C   0  0  0  0  0  0  0  0  0  0  0  0
    4.0916   -2.8151   27.5670 S   0  0  0  0  0  0  0  0  0  0  0  0
    4.3438   -3.7490   26.4976 O   0  0  0  0  0  0  0  0  0  0  0  0
    4.8448   -1.6019   27.7735 O   0  0  0  0  0  0  0  0  0  0  0  0
    4.1685   -3.7018   29.0576 N   0  0  0  0  0  0  0  0  0  0  0  0
    3.7852   -2.8719   30.2417 C   0  0  0  0  0  0  0  0  0  0  0  0
    3.2108   -3.5622   31.5269 C   0  0  0  0  0  0  0  0  0  0  0  0
    1.8395   -4.2887   31.7639 C   0  0  0  0  0  0  0  0  0  0  0  0
    1.4508   -4.4018   33.1922 C   0  0  0  0  0  0  0  0  0  0  0  0
    0.5394   -5.3146   33.5939 C   0  0  0  0  0  0  0  0  0  0  0  0
    0.3250   -5.4838   34.9953 N   0  0  0  0  0  0  0  0  0  0  0  0
    0.3699   -4.3884   35.9978 C   0  0  0  0  0  0  0  0  0  0  0  0
    0.5646   -5.0480   37.3651 C   0  0  0  0  0  0  0  0  0  0  0  0
    1.5809   -6.1674   37.1281 C   0  0  0  0  0  0  0  0  0  0  0  0
    1.8246   -7.1801   38.2117 C   0  0  0  0  0  0  0  0  0  0  0  0
    3.0223   -7.9176   38.1927 C   0  0  0  0  0  0  0  0  0  0  0  0
    3.2886   -8.8767   39.1699 C   0  0  0  0  0  0  0  0  0  0  0  0
    2.3605   -9.1181   40.1770 C   0  0  0  0  0  0  0  0  0  0  0  0
    1.1729   -8.3939   40.2142 C   0  0  0  0  0  0  0  0  0  0  0  0
    0.9077   -7.4275   39.2426 C   0  0  0  0  0  0  0  0  0  0  0  0
    0.9233   -6.9743   35.6557 S   0  0  0  0  0  0  0  0  0  0  0  0
    1.9768   -7.4714   34.7907 O   0  0  0  0  0  0  0  0  0  0  0  0
   -0.2433   -7.7712   35.9588 O   0  0  0  0  0  0  0  0  0  0  0  0
   -0.1096   -6.0947   32.6362 N   0  0  0  0  0  0  0  0  0  0  0  0
   -1.0178   -7.1171   32.7282 C   0  0  0  0  0  0  0  0  0  0  0  0
   -1.3343   -7.5536   31.5270 N   0  0  0  0  0  0  0  0  0  0  0  0
   -0.6214   -6.8102   30.6131 N   0  0  0  0  0  0  0  0  0  0  0  0
    0.1053   -5.9329   31.2791 C   0  0  0  0  0  0  0  0  0  0  0  0
    1.1204   -5.0081   30.8683 C   0  0  0  0  0  0  0  0  0  0  0  0
    1.8875   -1.2101   27.7295 C   0  0  0  0  0  0  0  0  0  0  0  0
    0.6079   -0.9732   28.1047 N   0  0  0  0  0  0  0  0  0  0  0  0
   -2.0986   -2.0927   27.8442 H   0  0  0  0  0  0  0  0  0  0  0  0
   -1.8598   -2.2547   29.4507 H   0  0  0  0  0  0  0  0  0  0  0  0
   -0.4449   -4.1410   28.4496 H   0  0  0  0  0  0  0  0  0  0  0  0
    1.9828   -4.5296   27.8839 H   0  0  0  0  0  0  0  0  0  0  0  0
    5.0879   -4.1459   29.1183 H   0  0  0  0  0  0  0  0  0  0  0  0
    4.7007   -2.3473   30.5484 H   0  0  0  0  0  0  0  0  0  0  0  0
    3.0664   -2.0919   29.9877 H   0  0  0  0  0  0  0  0  0  0  0  0
    3.1985   -2.7317   32.2513 H   0  0  0  0  0  0  0  0  0  0  0  0
    3.9969   -4.2318   31.9006 H   0  0  0  0  0  0  0  0  0  0  0  0
    2.0119   -3.7887   33.8875 H   0  0  0  0  0  0  0  0  0  0  0  0
    1.1997   -3.7008   35.8172 H   0  0  0  0  0  0  0  0  0  0  0  0
   -0.5667   -3.8228   35.9750 H   0  0  0  0  0  0  0  0  0  0  0  0
   -0.4020   -5.4429   37.6995 H   0  0  0  0  0  0  0  0  0  0  0  0
    0.9082   -4.3300   38.1164 H   0  0  0  0  0  0  0  0  0  0  0  0
    2.5375   -5.7153   36.8328 H   0  0  0  0  0  0  0  0  0  0  0  0
    3.7612   -7.7616   37.4085 H   0  0  0  0  0  0  0  0  0  0  0  0
    4.2091   -9.4534   39.1361 H   0  0  0  0  0  0  0  0  0  0  0  0
    2.5456   -9.8919   40.9183 H   0  0  0  0  0  0  0  0  0  0  0  0
    0.4419   -8.6032   40.9914 H   0  0  0  0  0  0  0  0  0  0  0  0
   -0.0367   -6.8949   39.3081 H   0  0  0  0  0  0  0  0  0  0  0  0
   -1.4050   -7.4966   33.6630 H   0  0  0  0  0  0  0  0  0  0  0  0
    1.4512   -5.0950   29.8496 H   0  0  0  0  0  0  0  0  0  0  0  0
    2.4980   -0.3255   27.5746 H   0  0  0  0  0  0  0  0  0  0  0  0
  1  2  1  0
  2  3  2  0
  3  4  1  0
  4  5  2  0
  5  6  1  0
  6  7  2  0
  6  8  2  0
  6  9  1  0
  9 10  1  0
 10 11  1  0
 11 12  1  0
 12 13  1  0
 13 14  2  0
 14 15  1  0
 15 16  1  0
 16 17  1  0
 17 18  1  0
 18 19  1  0
 19 20  2  0
 20 21  1  0
 21 22  2  0
 22 23  1  0
 23 24  2  0
 18 25  1  0
 25 26  2  0
 25 27  2  0
 14 28  1  0
 28 29  1  0
 29 30  2  0
 30 31  1  0
 31 32  2  0
 32 33  1  0
  5 34  1  0
 34 35  2  0
 35  2  1  0
 33 12  2  0
 25 15  1  0
 32 28  1  0
 24 19  1  0
  1 36  1  0
  1 37  1  0
  3 38  1  0
  4 39  1  0
  9 40  1  0
 10 41  1  0
 10 42  1  0
 11 43  1  0
 11 44  1  0
 13 45  1  0
 16 46  1  0
 16 47  1  0
 17 48  1  0
 17 49  1  0
 18 50  1  0
 20 51  1  0
 21 52  1  0
 22 53  1  0
 23 54  1  0
 24 55  1  0
 29 56  1  0
 33 57  1  0
 34 58  1  0
M  END
>  <Energy>  (499) 
4.9163275928808563

>  <compound_id>  (499) 
4133

>  <target_id>  (499) 
1

>  <reference_id>  (499) 
145

>  <inspiration_ids>  (499) 
[145, 177]

>  <energy_score>  (499) 
-41.51806877237584

>  <distance_score>  (499) 
1.5707731354544832

>  <path>  (499) 
/opt/xchem-fragalysis-2/maxwin/BulkDock/SCRATCH/505735/C4133-P145/C4133-P145.minimised.mol

>  <scratch_subdir>  (499) 
/opt/xchem-fragalysis-2/maxwin/BulkDock/SCRATCH/505735/C4133-P145

>  <fragmenstein_runtime>  (499) 
5.820451259613037

>  <fragmenstein_outcome>  (499) 
too moved

>  <fragmenstein_mode>  (499) 
expansion

>  <fragmenstein_error>  (499) 


$$$$
C4133-P177
     RDKit          3D

 58 62  0  0  0  0  0  0  0  0999 V2000
   -1.1272   -3.1434   28.6311 N   0  0  0  0  0  0  0  0  0  0  0  0
    0.0440   -3.0517   27.8980 C   0  0  0  0  0  0  0  0  0  0  0  0
    0.7489   -4.1756   27.5038 C   0  0  0  0  0  0  0  0  0  0  0  0
    2.0436   -4.0322   27.0223 C   0  0  0  0  0  0  0  0  0  0  0  0
    2.5555   -2.7477   26.9476 C   0  0  0  0  0  0  0  0  0  0  0  0
    4.2737   -2.4995   27.1438 S   0  0  0  0  0  0  0  0  0  0  0  0
    4.9826   -3.3423   26.2125 O   0  0  0  0  0  0  0  0  0  0  0  0
    4.5482   -1.0915   27.3176 O   0  0  0  0  0  0  0  0  0  0  0  0
    4.4569   -3.2119   28.6675 N   0  0  0  0  0  0  0  0  0  0  0  0
    3.5509   -2.8928   29.8273 C   0  0  0  0  0  0  0  0  0  0  0  0
    2.9999   -4.2048   30.4635 C   0  0  0  0  0  0  0  0  0  0  0  0
    1.6876   -4.5726   31.2243 C   0  0  0  0  0  0  0  0  0  0  0  0
    1.6014   -4.5175   32.7050 C   0  0  0  0  0  0  0  0  0  0  0  0
    0.7362   -5.3289   33.3709 C   0  0  0  0  0  0  0  0  0  0  0  0
    0.7552   -5.3364   34.8003 N   0  0  0  0  0  0  0  0  0  0  0  0
    1.0106   -4.1684   35.6672 C   0  0  0  0  0  0  0  0  0  0  0  0
    1.0929   -4.7142   37.0978 C   0  0  0  0  0  0  0  0  0  0  0  0
    1.9500   -5.9775   36.9856 C   0  0  0  0  0  0  0  0  0  0  0  0
    2.0294   -6.9212   38.1547 C   0  0  0  0  0  0  0  0  0  0  0  0
    3.1941   -7.6924   38.3214 C   0  0  0  0  0  0  0  0  0  0  0  0
    3.3069   -8.6033   39.3717 C   0  0  0  0  0  0  0  0  0  0  0  0
    2.2569   -8.7604   40.2697 C   0  0  0  0  0  0  0  0  0  0  0  0
    1.0973   -8.0047   40.1211 C   0  0  0  0  0  0  0  0  0  0  0  0
    0.9826   -7.0901   39.0721 C   0  0  0  0  0  0  0  0  0  0  0  0
    1.2372   -6.8173   35.5606 S   0  0  0  0  0  0  0  0  0  0  0  0
    2.2672   -7.4340   34.7460 O   0  0  0  0  0  0  0  0  0  0  0  0
    0.0264   -7.5190   35.9247 O   0  0  0  0  0  0  0  0  0  0  0  0
   -0.1262   -6.1605   32.6447 N   0  0  0  0  0  0  0  0  0  0  0  0
   -1.0745   -7.0797   33.0074 C   0  0  0  0  0  0  0  0  0  0  0  0
   -1.5828   -7.6618   31.9428 N   0  0  0  0  0  0  0  0  0  0  0  0
   -0.9998   -7.0898   30.8423 N   0  0  0  0  0  0  0  0  0  0  0  0
   -0.1543   -6.1742   31.2686 C   0  0  0  0  0  0  0  0  0  0  0  0
    0.7821   -5.3571   30.5849 C   0  0  0  0  0  0  0  0  0  0  0  0
    1.7388   -1.6723   27.2147 C   0  0  0  0  0  0  0  0  0  0  0  0
    0.4895   -1.8114   27.6980 N   0  0  0  0  0  0  0  0  0  0  0  0
   -1.8387   -3.6373   28.0811 H   0  0  0  0  0  0  0  0  0  0  0  0
   -1.4488   -2.1876   28.7637 H   0  0  0  0  0  0  0  0  0  0  0  0
    0.3094   -5.1584   27.6304 H   0  0  0  0  0  0  0  0  0  0  0  0
    2.6679   -4.9006   26.8293 H   0  0  0  0  0  0  0  0  0  0  0  0
    5.0332   -4.0518   28.6737 H   0  0  0  0  0  0  0  0  0  0  0  0
    4.1500   -2.3609   30.5753 H   0  0  0  0  0  0  0  0  0  0  0  0
    2.7338   -2.2258   29.5591 H   0  0  0  0  0  0  0  0  0  0  0  0
    2.9582   -4.8567   29.5853 H   0  0  0  0  0  0  0  0  0  0  0  0
    3.8170   -4.5645   31.1039 H   0  0  0  0  0  0  0  0  0  0  0  0
    2.3114   -3.8690   33.2046 H   0  0  0  0  0  0  0  0  0  0  0  0
    1.9549   -3.6823   35.4036 H   0  0  0  0  0  0  0  0  0  0  0  0
    0.1966   -3.4425   35.5806 H   0  0  0  0  0  0  0  0  0  0  0  0
    0.0783   -4.9403   37.4464 H   0  0  0  0  0  0  0  0  0  0  0  0
    1.5276   -3.9827   37.7861 H   0  0  0  0  0  0  0  0  0  0  0  0
    2.9642   -5.6782   36.6878 H   0  0  0  0  0  0  0  0  0  0  0  0
    4.0258   -7.6035   37.6252 H   0  0  0  0  0  0  0  0  0  0  0  0
    4.2036   -9.2074   39.4802 H   0  0  0  0  0  0  0  0  0  0  0  0
    2.3262   -9.4960   41.0670 H   0  0  0  0  0  0  0  0  0  0  0  0
    0.2692   -8.1512   40.8097 H   0  0  0  0  0  0  0  0  0  0  0  0
    0.0492   -6.5418   38.9774 H   0  0  0  0  0  0  0  0  0  0  0  0
   -1.3581   -7.2896   34.0261 H   0  0  0  0  0  0  0  0  0  0  0  0
    0.8796   -5.5799   29.5380 H   0  0  0  0  0  0  0  0  0  0  0  0
    2.1059   -0.6479   27.1971 H   0  0  0  0  0  0  0  0  0  0  0  0
  1  2  1  0
  2  3  2  0
  3  4  1  0
  4  5  2  0
  5  6  1  0
  6  7  2  0
  6  8  2  0
  6  9  1  0
  9 10  1  0
 10 11  1  0
 11 12  1  0
 12 13  1  0
 13 14  2  0
 14 15  1  0
 15 16  1  0
 16 17  1  0
 17 18  1  0
 18 19  1  0
 19 20  2  0
 20 21  1  0
 21 22  2  0
 22 23  1  0
 23 24  2  0
 18 25  1  0
 25 26  2  0
 25 27  2  0
 14 28  1  0
 28 29  1  0
 29 30  2  0
 30 31  1  0
 31 32  2  0
 32 33  1  0
  5 34  1  0
 34 35  2  0
 35  2  1  0
 33 12  2  0
 25 15  1  0
 32 28  1  0
 24 19  1  0
  1 36  1  0
  1 37  1  0
  3 38  1  0
  4 39  1  0
  9 40  1  0
 10 41  1  0
 10 42  1  0
 11 43  1  0
 11 44  1  0
 13 45  1  0
 16 46  1  0
 16 47  1  0
 17 48  1  0
 17 49  1  0
 18 50  1  0
 20 51  1  0
 21 52  1  0
 22 53  1  0
 23 54  1  0
 24 55  1  0
 29 56  1  0
 33 57  1  0
 34 58  1  0
M  END
>  <Energy>  (500) 
2.5559187817118056

>  <compound_id>  (500) 
4133

>  <target_id>  (500) 
1

>  <reference_id>  (500) 
177

>  <inspiration_ids>  (500) 
[145, 177]

>  <energy_score>  (500) 
-43.878477583546655

>  <distance_score>  (500) 
1.2687774571861534

>  <path>  (500) 
/opt/xchem-fragalysis-2/maxwin/BulkDock/SCRATCH/505735/C4133-P177/C4133-P177.minimised.mol

>  <scratch_subdir>  (500) 
/opt/xchem-fragalysis-2/maxwin/BulkDock/SCRATCH/505735/C4133-P177

>  <fragmenstein_runtime>  (500) 
5.652345895767212

>  <fragmenstein_outcome>  (500) 
too moved

>  <fragmenstein_mode>  (500) 
expansion

>  <fragmenstein_error>  (500) 


$$$$
C4134-P183
     RDKit          2D

  0  0  0  0  0  0  0  0  0  0999 V2000
M  END
>  <compound_id>  (501) 
4134

>  <target_id>  (501) 
1

>  <reference_id>  (501) 
183

>  <inspiration_ids>  (501) 
[145, 183]

>  <energy_score>  (501) 
nan

>  <distance_score>  (501) 
nan

>  <path>  (501) 
/opt/xchem-fragalysis-2/maxwin/BulkDock/SCRATCH/505735/C4134-P183/C4134-P183.minimised.mol

>  <scratch_subdir>  (501) 
/opt/xchem-fragalysis-2/maxwin/BulkDock/SCRATCH/505735/C4134-P183

>  <fragmenstein_runtime>  (501) 
0.6399216651916504

>  <fragmenstein_outcome>  (501) 
too distant

>  <fragmenstein_mode>  (501) 
expansion

>  <fragmenstein_error>  (501) 
DistanceError: hit0+hit1

$$$$
C4134-P145
     RDKit          3D

 49 52  0  0  0  0  0  0  0  0999 V2000
   -1.0290    1.3361   28.5059 C   0  0  0  0  0  0  0  0  0  0  0  0
   -1.0350   -0.0103   27.8182 C   0  0  0  0  0  0  0  0  0  0  0  0
   -1.3290   -0.9878   28.8185 O   0  0  0  0  0  0  0  0  0  0  0  0
   -0.5751   -2.1041   28.7848 C   0  0  0  0  0  0  0  0  0  0  0  0
    0.2803   -2.4359   27.9825 O   0  0  0  0  0  0  0  0  0  0  0  0
   -0.8870   -2.8715   29.9958 C   0  0  0  0  0  0  0  0  0  0  0  0
   -0.3446   -4.0914   30.1179 C   0  0  0  0  0  0  0  0  0  0  0  0
   -0.1576   -4.7313   31.3932 C   0  0  0  0  0  0  0  0  0  0  0  0
    0.5029   -4.0015   32.3152 C   0  0  0  0  0  0  0  0  0  0  0  0
    0.6176   -4.4164   33.6835 C   0  0  0  0  0  0  0  0  0  0  0  0
    0.0588   -5.5758   34.0635 C   0  0  0  0  0  0  0  0  0  0  0  0
    0.0759   -5.8340   35.4583 N   0  0  0  0  0  0  0  0  0  0  0  0
    0.0804   -4.7750   36.5021 C   0  0  0  0  0  0  0  0  0  0  0  0
    0.4401   -5.4604   37.8108 C   0  0  0  0  0  0  0  0  0  0  0  0
    1.5639   -6.4312   37.4448 C   0  0  0  0  0  0  0  0  0  0  0  0
    1.9648   -7.4551   38.4643 C   0  0  0  0  0  0  0  0  0  0  0  0
    3.2503   -8.0168   38.3932 C   0  0  0  0  0  0  0  0  0  0  0  0
    3.6614   -8.9719   39.3218 C   0  0  0  0  0  0  0  0  0  0  0  0
    2.7938   -9.3813   40.3294 C   0  0  0  0  0  0  0  0  0  0  0  0
    1.5176   -8.8353   40.4121 C   0  0  0  0  0  0  0  0  0  0  0  0
    1.1055   -7.8774   39.4883 C   0  0  0  0  0  0  0  0  0  0  0  0
    0.9334   -7.2322   35.9585 S   0  0  0  0  0  0  0  0  0  0  0  0
    1.9831   -7.4995   34.9934 O   0  0  0  0  0  0  0  0  0  0  0  0
   -0.0818   -8.2098   36.2636 O   0  0  0  0  0  0  0  0  0  0  0  0
   -0.5153   -6.4071   33.0902 N   0  0  0  0  0  0  0  0  0  0  0  0
   -1.1351   -7.6254   33.1464 C   0  0  0  0  0  0  0  0  0  0  0  0
   -1.4514   -8.0324   31.9348 N   0  0  0  0  0  0  0  0  0  0  0  0
   -1.0905   -7.0469   31.0492 N   0  0  0  0  0  0  0  0  0  0  0  0
   -0.5823   -6.0511   31.7462 C   0  0  0  0  0  0  0  0  0  0  0  0
   -0.8523    2.1412   27.7872 H   0  0  0  0  0  0  0  0  0  0  0  0
   -0.2500    1.3737   29.2747 H   0  0  0  0  0  0  0  0  0  0  0  0
   -1.9801    1.5171   29.0116 H   0  0  0  0  0  0  0  0  0  0  0  0
   -1.8197   -0.0438   27.0581 H   0  0  0  0  0  0  0  0  0  0  0  0
   -0.0596   -0.1703   27.3513 H   0  0  0  0  0  0  0  0  0  0  0  0
   -1.3668   -2.3392   30.8073 H   0  0  0  0  0  0  0  0  0  0  0  0
    0.1340   -4.5736   29.2703 H   0  0  0  0  0  0  0  0  0  0  0  0
    0.8963   -3.0105   32.0923 H   0  0  0  0  0  0  0  0  0  0  0  0
    1.1123   -3.7125   34.3384 H   0  0  0  0  0  0  0  0  0  0  0  0
    0.8295   -4.0030   36.3107 H   0  0  0  0  0  0  0  0  0  0  0  0
   -0.9046   -4.3045   36.5686 H   0  0  0  0  0  0  0  0  0  0  0  0
    0.7471   -4.7429   38.5784 H   0  0  0  0  0  0  0  0  0  0  0  0
   -0.4497   -5.9817   38.1797 H   0  0  0  0  0  0  0  0  0  0  0  0
    2.4444   -5.8518   37.1363 H   0  0  0  0  0  0  0  0  0  0  0  0
    3.9463   -7.7225   37.6099 H   0  0  0  0  0  0  0  0  0  0  0  0
    4.6536   -9.4100   39.2536 H   0  0  0  0  0  0  0  0  0  0  0  0
    3.0989  -10.1478   41.0374 H   0  0  0  0  0  0  0  0  0  0  0  0
    0.8322   -9.1848   41.1805 H   0  0  0  0  0  0  0  0  0  0  0  0
    0.0931   -7.4989   39.5851 H   0  0  0  0  0  0  0  0  0  0  0  0
   -1.3234   -8.1683   34.0612 H   0  0  0  0  0  0  0  0  0  0  0  0
  1  2  1  0
  2  3  1  0
  3  4  1  0
  4  5  2  0
  4  6  1  0
  6  7  2  3
  7  8  1  0
  8  9  2  0
  9 10  1  0
 10 11  2  0
 11 12  1  0
 12 13  1  0
 13 14  1  0
 14 15  1  0
 15 16  1  0
 16 17  2  0
 17 18  1  0
 18 19  2  0
 19 20  1  0
 20 21  2  0
 15 22  1  0
 22 23  2  0
 22 24  2  0
 11 25  1  0
 25 26  1  0
 26 27  2  0
 27 28  1  0
 28 29  2  0
 29  8  1  0
 22 12  1  0
 29 25  1  0
 21 16  1  0
  1 30  1  0
  1 31  1  0
  1 32  1  0
  2 33  1  0
  2 34  1  0
  6 35  1  0
  7 36  1  0
  9 37  1  0
 10 38  1  0
 13 39  1  0
 13 40  1  0
 14 41  1  0
 14 42  1  0
 15 43  1  0
 17 44  1  0
 18 45  1  0
 19 46  1  0
 20 47  1  0
 21 48  1  0
 26 49  1  0
M  END
>  <Energy>  (502) 
63.130595462946424

>  <compound_id>  (502) 
4134

>  <target_id>  (502) 
1

>  <reference_id>  (502) 
145

>  <inspiration_ids>  (502) 
[145, 186]

>  <energy_score>  (502) 
-42.45655786203645

>  <distance_score>  (502) 
1.3134488899130785

>  <path>  (502) 
/opt/xchem-fragalysis-2/maxwin/BulkDock/SCRATCH/505735/C4134-P145/C4134-P145.minimised.mol

>  <scratch_subdir>  (502) 
/opt/xchem-fragalysis-2/maxwin/BulkDock/SCRATCH/505735/C4134-P145

>  <fragmenstein_runtime>  (502) 
9.544508218765259

>  <fragmenstein_outcome>  (502) 
too moved

>  <fragmenstein_mode>  (502) 
expansion

>  <fragmenstein_error>  (502) 


$$$$
C4134-P186
     RDKit          3D

 49 52  0  0  0  0  0  0  0  0999 V2000
   -0.0971    1.0357   29.4314 C   0  0  0  0  0  0  0  0  0  0  0  0
   -1.0388    0.2289   28.5747 C   0  0  0  0  0  0  0  0  0  0  0  0
   -1.4368   -0.9234   29.3117 O   0  0  0  0  0  0  0  0  0  0  0  0
   -0.9533   -2.1041   28.8585 C   0  0  0  0  0  0  0  0  0  0  0  0
   -0.4316   -2.3524   27.7880 O   0  0  0  0  0  0  0  0  0  0  0  0
   -1.1008   -3.0277   29.9923 C   0  0  0  0  0  0  0  0  0  0  0  0
   -0.3725   -4.1517   30.0186 C   0  0  0  0  0  0  0  0  0  0  0  0
   -0.0762   -4.8075   31.2695 C   0  0  0  0  0  0  0  0  0  0  0  0
    0.6357   -4.0633   32.1433 C   0  0  0  0  0  0  0  0  0  0  0  0
    0.7802   -4.4286   33.5255 C   0  0  0  0  0  0  0  0  0  0  0  0
    0.1892   -5.5496   33.9668 C   0  0  0  0  0  0  0  0  0  0  0  0
    0.2191   -5.7376   35.3704 N   0  0  0  0  0  0  0  0  0  0  0  0
    0.2196   -4.6487   36.3794 C   0  0  0  0  0  0  0  0  0  0  0  0
    0.5301   -5.3014   37.7228 C   0  0  0  0  0  0  0  0  0  0  0  0
    1.6044   -6.3448   37.4088 C   0  0  0  0  0  0  0  0  0  0  0  0
    1.9595   -7.3444   38.4678 C   0  0  0  0  0  0  0  0  0  0  0  0
    3.2463   -7.9098   38.4620 C   0  0  0  0  0  0  0  0  0  0  0  0
    3.6190   -8.8446   39.4269 C   0  0  0  0  0  0  0  0  0  0  0  0
    2.7110   -9.2297   40.4075 C   0  0  0  0  0  0  0  0  0  0  0  0
    1.4324   -8.6816   40.4236 C   0  0  0  0  0  0  0  0  0  0  0  0
    1.0570   -7.7459   39.4611 C   0  0  0  0  0  0  0  0  0  0  0  0
    0.9353   -7.1720   35.9584 S   0  0  0  0  0  0  0  0  0  0  0  0
    1.9770   -7.5831   35.0365 O   0  0  0  0  0  0  0  0  0  0  0  0
   -0.1802   -8.0238   36.2948 O   0  0  0  0  0  0  0  0  0  0  0  0
   -0.4349   -6.4001   33.0420 N   0  0  0  0  0  0  0  0  0  0  0  0
   -1.0959   -7.5902   33.1668 C   0  0  0  0  0  0  0  0  0  0  0  0
   -1.4629   -8.0415   31.9866 N   0  0  0  0  0  0  0  0  0  0  0  0
   -1.0959   -7.1063   31.0506 N   0  0  0  0  0  0  0  0  0  0  0  0
   -0.5320   -6.0984   31.6866 C   0  0  0  0  0  0  0  0  0  0  0  0
    0.1596    1.9828   28.9488 H   0  0  0  0  0  0  0  0  0  0  0  0
    0.8269    0.4772   29.6160 H   0  0  0  0  0  0  0  0  0  0  0  0
   -0.5370    1.2415   30.4121 H   0  0  0  0  0  0  0  0  0  0  0  0
   -1.9358    0.8139   28.3742 H   0  0  0  0  0  0  0  0  0  0  0  0
   -0.5473   -0.0300   27.6365 H   0  0  0  0  0  0  0  0  0  0  0  0
   -1.6194   -2.6496   30.8658 H   0  0  0  0  0  0  0  0  0  0  0  0
    0.1805   -4.4850   29.1446 H   0  0  0  0  0  0  0  0  0  0  0  0
    1.0222   -3.0804   31.8750 H   0  0  0  0  0  0  0  0  0  0  0  0
    1.3107   -3.7184   34.1459 H   0  0  0  0  0  0  0  0  0  0  0  0
    0.9924   -3.9032   36.1745 H   0  0  0  0  0  0  0  0  0  0  0  0
   -0.7563   -4.1542   36.4061 H   0  0  0  0  0  0  0  0  0  0  0  0
    0.8675   -4.5700   38.4640 H   0  0  0  0  0  0  0  0  0  0  0  0
   -0.3893   -5.7607   38.1042 H   0  0  0  0  0  0  0  0  0  0  0  0
    2.5124   -5.8236   37.0761 H   0  0  0  0  0  0  0  0  0  0  0  0
    3.9740   -7.6338   37.7011 H   0  0  0  0  0  0  0  0  0  0  0  0
    4.6129   -9.2838   39.4088 H   0  0  0  0  0  0  0  0  0  0  0  0
    2.9855   -9.9786   41.1460 H   0  0  0  0  0  0  0  0  0  0  0  0
    0.7127   -9.0190   41.1659 H   0  0  0  0  0  0  0  0  0  0  0  0
    0.0379   -7.3736   39.4969 H   0  0  0  0  0  0  0  0  0  0  0  0
   -1.2775   -8.0788   34.1105 H   0  0  0  0  0  0  0  0  0  0  0  0
  1  2  1  0
  2  3  1  0
  3  4  1  0
  4  5  2  0
  4  6  1  0
  6  7  2  3
  7  8  1  0
  8  9  2  0
  9 10  1  0
 10 11  2  0
 11 12  1  0
 12 13  1  0
 13 14  1  0
 14 15  1  0
 15 16  1  0
 16 17  2  0
 17 18  1  0
 18 19  2  0
 19 20  1  0
 20 21  2  0
 15 22  1  0
 22 23  2  0
 22 24  2  0
 11 25  1  0
 25 26  1  0
 26 27  2  0
 27 28  1  0
 28 29  2  0
 29  8  1  0
 22 12  1  0
 29 25  1  0
 21 16  1  0
  1 30  1  0
  1 31  1  0
  1 32  1  0
  2 33  1  0
  2 34  1  0
  6 35  1  0
  7 36  1  0
  9 37  1  0
 10 38  1  0
 13 39  1  0
 13 40  1  0
 14 41  1  0
 14 42  1  0
 15 43  1  0
 17 44  1  0
 18 45  1  0
 19 46  1  0
 20 47  1  0
 21 48  1  0
 26 49  1  0
M  END
>  <Energy>  (503) 
66.013938157325711

>  <compound_id>  (503) 
4134

>  <target_id>  (503) 
1

>  <reference_id>  (503) 
186

>  <inspiration_ids>  (503) 
[145, 186]

>  <energy_score>  (503) 
-39.573215167657224

>  <distance_score>  (503) 
1.2743267736097084

>  <path>  (503) 
/opt/xchem-fragalysis-2/maxwin/BulkDock/SCRATCH/505735/C4134-P186/C4134-P186.minimised.mol

>  <scratch_subdir>  (503) 
/opt/xchem-fragalysis-2/maxwin/BulkDock/SCRATCH/505735/C4134-P186

>  <fragmenstein_runtime>  (503) 
9.290523529052734

>  <fragmenstein_outcome>  (503) 
too moved

>  <fragmenstein_mode>  (503) 
expansion

>  <fragmenstein_error>  (503) 


$$$$
C4146-P145
     RDKit          3D

 63 68  0  0  0  0  0  0  0  0999 V2000
    2.7263   -1.5459   32.5419 O   0  0  0  0  0  0  0  0  0  0  0  0
    1.3207   -1.3231   32.7666 S   0  0  0  0  0  0  0  0  0  0  0  0
    0.4036   -0.9719   31.7113 O   0  0  0  0  0  0  0  0  0  0  0  0
    0.6844   -2.7075   33.4734 N   0  0  0  0  0  0  0  0  0  0  0  0
    1.0456   -4.0199   32.7984 C   0  0  0  0  0  0  0  0  0  0  0  0
    0.5554   -4.0231   31.3349 C   0  0  0  0  0  0  0  0  0  0  0  0
    0.6996   -5.2985   30.4641 C   0  0  0  0  0  0  0  0  0  0  0  0
   -0.3674   -5.8819   31.3829 C   0  0  0  0  0  0  0  0  0  0  0  0
   -0.9300   -4.4236   31.3453 C   0  0  0  0  0  0  0  0  0  0  0  0
   -1.1331   -6.9240   30.7467 N   0  0  0  0  0  0  0  0  0  0  0  0
   -1.3892   -7.8815   31.8051 N   0  0  0  0  0  0  0  0  0  0  0  0
   -0.8649   -7.3017   33.0475 C   0  0  0  0  0  0  0  0  0  0  0  0
    0.1612   -6.3398   32.6557 N   0  0  0  0  0  0  0  0  0  0  0  0
    0.3340   -5.2320   33.5965 C   0  0  0  0  0  0  0  0  0  0  0  0
    1.1138   -5.4813   34.8306 N   0  0  0  0  0  0  0  0  0  0  0  0
    1.0602   -4.3808   35.8454 C   0  0  0  0  0  0  0  0  0  0  0  0
    1.1910   -4.9977   37.2414 C   0  0  0  0  0  0  0  0  0  0  0  0
    1.9973   -6.2800   37.0508 C   0  0  0  0  0  0  0  0  0  0  0  0
    2.0442   -7.2696   38.1801 C   0  0  0  0  0  0  0  0  0  0  0  0
    3.1992   -8.0557   38.3353 C   0  0  0  0  0  0  0  0  0  0  0  0
    3.2964   -8.9895   39.3661 C   0  0  0  0  0  0  0  0  0  0  0  0
    2.2384   -9.1574   40.2529 C   0  0  0  0  0  0  0  0  0  0  0  0
    1.0864   -8.3892   40.1130 C   0  0  0  0  0  0  0  0  0  0  0  0
    0.9890   -7.4499   39.0855 C   0  0  0  0  0  0  0  0  0  0  0  0
    1.2050   -6.9888   35.6068 S   0  0  0  0  0  0  0  0  0  0  0  0
    2.1016   -7.8285   34.8413 O   0  0  0  0  0  0  0  0  0  0  0  0
   -0.1475   -7.3921   35.9326 O   0  0  0  0  0  0  0  0  0  0  0  0
    1.1274   -0.2446   34.0255 N   0  0  0  0  0  0  0  0  0  0  0  0
    1.9723   -0.4454   35.2311 C   0  0  0  0  0  0  0  0  0  0  0  0
    1.9222    0.8105   36.1081 C   0  0  0  0  0  0  0  0  0  0  0  0
    0.5697    1.1307   36.4717 O   0  0  0  0  0  0  0  0  0  0  0  0
   -0.2073    1.3991   35.2937 C   0  0  0  0  0  0  0  0  0  0  0  0
   -0.2563    0.1729   34.3757 C   0  0  0  0  0  0  0  0  0  0  0  0
   -0.3299   -2.5836   33.4942 H   0  0  0  0  0  0  0  0  0  0  0  0
    2.1340   -4.1517   32.8327 H   0  0  0  0  0  0  0  0  0  0  0  0
    0.8198   -3.1384   30.7535 H   0  0  0  0  0  0  0  0  0  0  0  0
    1.6687   -5.7341   30.3741 H   0  0  0  0  0  0  0  0  0  0  0  0
    0.3705   -5.1281   29.4280 H   0  0  0  0  0  0  0  0  0  0  0  0
   -1.4823   -4.0098   32.1875 H   0  0  0  0  0  0  0  0  0  0  0  0
   -1.4313   -4.0891   30.4324 H   0  0  0  0  0  0  0  0  0  0  0  0
   -0.5771   -7.3928   30.0229 H   0  0  0  0  0  0  0  0  0  0  0  0
   -2.3824   -8.0987   31.9320 H   0  0  0  0  0  0  0  0  0  0  0  0
   -0.4631   -8.1148   33.6453 H   0  0  0  0  0  0  0  0  0  0  0  0
   -1.6833   -6.8341   33.6012 H   0  0  0  0  0  0  0  0  0  0  0  0
   -0.6523   -4.8852   33.9311 H   0  0  0  0  0  0  0  0  0  0  0  0
    1.9130   -3.7173   35.6680 H   0  0  0  0  0  0  0  0  0  0  0  0
    0.1302   -3.8075   35.7917 H   0  0  0  0  0  0  0  0  0  0  0  0
    1.6677   -4.3085   37.9461 H   0  0  0  0  0  0  0  0  0  0  0  0
    0.1825   -5.1994   37.6207 H   0  0  0  0  0  0  0  0  0  0  0  0
    3.0194   -6.0159   36.7473 H   0  0  0  0  0  0  0  0  0  0  0  0
    4.0368   -7.9571   37.6469 H   0  0  0  0  0  0  0  0  0  0  0  0
    4.1873   -9.6033   39.4672 H   0  0  0  0  0  0  0  0  0  0  0  0
    2.2940   -9.9120   41.0339 H   0  0  0  0  0  0  0  0  0  0  0  0
    0.2526   -8.5448   40.7930 H   0  0  0  0  0  0  0  0  0  0  0  0
    0.0639   -6.8864   39.0012 H   0  0  0  0  0  0  0  0  0  0  0  0
    1.5856   -1.2989   35.7980 H   0  0  0  0  0  0  0  0  0  0  0  0
    3.0115   -0.6414   34.9513 H   0  0  0  0  0  0  0  0  0  0  0  0
    2.4824    0.6409   37.0329 H   0  0  0  0  0  0  0  0  0  0  0  0
    2.3702    1.6711   35.5971 H   0  0  0  0  0  0  0  0  0  0  0  0
   -1.2192    1.6626   35.6169 H   0  0  0  0  0  0  0  0  0  0  0  0
    0.2158    2.2675   34.7747 H   0  0  0  0  0  0  0  0  0  0  0  0
   -0.7569   -0.6531   34.8938 H   0  0  0  0  0  0  0  0  0  0  0  0
   -0.8250    0.4284   33.4767 H   0  0  0  0  0  0  0  0  0  0  0  0
  1  2  2  0
  2  3  2  0
  2  4  1  0
  4  5  1  0
  5  6  1  0
  6  7  1  0
  7  8  1  0
  8  9  1  0
  8 10  1  0
 10 11  1  0
 11 12  1  0
 12 13  1  0
 13 14  1  0
 14 15  1  0
 15 16  1  0
 16 17  1  0
 17 18  1  0
 18 19  1  0
 19 20  2  0
 20 21  1  0
 21 22  2  0
 22 23  1  0
 23 24  2  0
 18 25  1  0
 25 26  2  0
 25 27  2  0
  2 28  1  0
 28 29  1  0
 29 30  1  0
 30 31  1  0
 31 32  1  0
 32 33  1  0
 14  5  1  0
 25 15  1  0
 33 28  1  0
  9  6  1  0
 24 19  1  0
 13  8  1  0
  4 34  1  0
  5 35  1  0
  6 36  1  0
  7 37  1  0
  7 38  1  0
  9 39  1  0
  9 40  1  0
 10 41  1  0
 11 42  1  0
 12 43  1  0
 12 44  1  0
 14 45  1  0
 16 46  1  0
 16 47  1  0
 17 48  1  0
 17 49  1  0
 18 50  1  0
 20 51  1  0
 21 52  1  0
 22 53  1  0
 23 54  1  0
 24 55  1  0
 29 56  1  0
 29 57  1  0
 30 58  1  0
 30 59  1  0
 32 60  1  0
 32 61  1  0
 33 62  1  0
 33 63  1  0
M  END
>  <Energy>  (504) 
-100.56195639153185

>  <compound_id>  (504) 
4146

>  <target_id>  (504) 
1

>  <reference_id>  (504) 
145

>  <inspiration_ids>  (504) 
[145, 187]

>  <energy_score>  (504) 
-120.12518621310612

>  <distance_score>  (504) 
1.0862239072393405

>  <path>  (504) 
/opt/xchem-fragalysis-2/maxwin/BulkDock/SCRATCH/505735/C4146-P145/C4146-P145.minimised.mol

>  <scratch_subdir>  (504) 
/opt/xchem-fragalysis-2/maxwin/BulkDock/SCRATCH/505735/C4146-P145

>  <fragmenstein_runtime>  (504) 
12.56552267074585

>  <fragmenstein_outcome>  (504) 
too moved

>  <fragmenstein_mode>  (504) 
expansion

>  <fragmenstein_error>  (504) 


$$$$
C4146-P187
     RDKit          3D

 63 68  0  0  0  0  0  0  0  0999 V2000
    2.4174   -1.6023   32.7724 O   0  0  0  0  0  0  0  0  0  0  0  0
    0.9824   -1.4930   32.6984 S   0  0  0  0  0  0  0  0  0  0  0  0
    0.2756   -1.2758   31.4617 O   0  0  0  0  0  0  0  0  0  0  0  0
    0.3195   -2.8838   33.3565 N   0  0  0  0  0  0  0  0  0  0  0  0
    0.9377   -4.1898   32.9126 C   0  0  0  0  0  0  0  0  0  0  0  0
    0.8328   -4.3898   31.3948 C   0  0  0  0  0  0  0  0  0  0  0  0
    1.3129   -5.7876   30.8825 C   0  0  0  0  0  0  0  0  0  0  0  0
   -0.0288   -6.2758   31.4176 C   0  0  0  0  0  0  0  0  0  0  0  0
   -0.5761   -4.8871   31.0320 C   0  0  0  0  0  0  0  0  0  0  0  0
   -0.6563   -7.3718   30.7278 N   0  0  0  0  0  0  0  0  0  0  0  0
   -1.4024   -8.0496   31.7900 N   0  0  0  0  0  0  0  0  0  0  0  0
   -0.9688   -7.4872   33.0831 C   0  0  0  0  0  0  0  0  0  0  0  0
    0.1268   -6.5739   32.8167 N   0  0  0  0  0  0  0  0  0  0  0  0
    0.1810   -5.3903   33.6656 C   0  0  0  0  0  0  0  0  0  0  0  0
    0.8708   -5.5496   34.9592 N   0  0  0  0  0  0  0  0  0  0  0  0
    0.6578   -4.4630   35.9547 C   0  0  0  0  0  0  0  0  0  0  0  0
    0.8662   -5.0572   37.3541 C   0  0  0  0  0  0  0  0  0  0  0  0
    1.8116   -6.2466   37.1678 C   0  0  0  0  0  0  0  0  0  0  0  0
    1.9802   -7.2241   38.2982 C   0  0  0  0  0  0  0  0  0  0  0  0
    3.2121   -7.8869   38.4391 C   0  0  0  0  0  0  0  0  0  0  0  0
    3.4279   -8.7875   39.4827 C   0  0  0  0  0  0  0  0  0  0  0  0
    2.4139   -9.0443   40.3997 C   0  0  0  0  0  0  0  0  0  0  0  0
    1.1827   -8.4086   40.2659 C   0  0  0  0  0  0  0  0  0  0  0  0
    0.9656   -7.5068   39.2220 C   0  0  0  0  0  0  0  0  0  0  0  0
    1.1162   -7.0414   35.7222 S   0  0  0  0  0  0  0  0  0  0  0  0
    2.1226   -7.7786   34.9843 O   0  0  0  0  0  0  0  0  0  0  0  0
   -0.1966   -7.5589   36.0351 O   0  0  0  0  0  0  0  0  0  0  0  0
    0.4585   -0.3749   33.8253 N   0  0  0  0  0  0  0  0  0  0  0  0
    1.0551   -0.4621   35.1850 C   0  0  0  0  0  0  0  0  0  0  0  0
    0.7216    0.8066   35.9769 C   0  0  0  0  0  0  0  0  0  0  0  0
   -0.6987    1.0086   36.0514 O   0  0  0  0  0  0  0  0  0  0  0  0
   -1.2413    1.1683   34.7315 C   0  0  0  0  0  0  0  0  0  0  0  0
   -0.9990   -0.0810   33.8775 C   0  0  0  0  0  0  0  0  0  0  0  0
   -0.6812   -2.8649   33.1535 H   0  0  0  0  0  0  0  0  0  0  0  0
    1.9965   -4.1904   33.2028 H   0  0  0  0  0  0  0  0  0  0  0  0
    1.2274   -3.5708   30.7885 H   0  0  0  0  0  0  0  0  0  0  0  0
    2.2202   -6.1429   31.3706 H   0  0  0  0  0  0  0  0  0  0  0  0
    1.4462   -5.8424   29.7954 H   0  0  0  0  0  0  0  0  0  0  0  0
   -1.4108   -4.4799   31.6046 H   0  0  0  0  0  0  0  0  0  0  0  0
   -0.7770   -4.7242   29.9658 H   0  0  0  0  0  0  0  0  0  0  0  0
    0.0425   -8.0412   30.3837 H   0  0  0  0  0  0  0  0  0  0  0  0
   -2.4149   -7.9314   31.7168 H   0  0  0  0  0  0  0  0  0  0  0  0
   -0.6463   -8.3035   33.7218 H   0  0  0  0  0  0  0  0  0  0  0  0
   -1.8132   -6.9909   33.5650 H   0  0  0  0  0  0  0  0  0  0  0  0
   -0.8444   -5.0538   33.8705 H   0  0  0  0  0  0  0  0  0  0  0  0
    1.4111   -3.6873   35.7827 H   0  0  0  0  0  0  0  0  0  0  0  0
   -0.3405   -4.0217   35.8797 H   0  0  0  0  0  0  0  0  0  0  0  0
    1.2658   -4.3161   38.0540 H   0  0  0  0  0  0  0  0  0  0  0  0
   -0.1110   -5.3698   37.7402 H   0  0  0  0  0  0  0  0  0  0  0  0
    2.7976   -5.8657   36.8682 H   0  0  0  0  0  0  0  0  0  0  0  0
    4.0201   -7.7095   37.7311 H   0  0  0  0  0  0  0  0  0  0  0  0
    4.3860   -9.2916   39.5762 H   0  0  0  0  0  0  0  0  0  0  0  0
    2.5756   -9.7501   41.2092 H   0  0  0  0  0  0  0  0  0  0  0  0
    0.3791   -8.6306   40.9631 H   0  0  0  0  0  0  0  0  0  0  0  0
   -0.0184   -7.0544   39.1372 H   0  0  0  0  0  0  0  0  0  0  0  0
    0.6364   -1.3320   35.7025 H   0  0  0  0  0  0  0  0  0  0  0  0
    2.1424   -0.5677   35.1269 H   0  0  0  0  0  0  0  0  0  0  0  0
    1.0971    0.7153   37.0010 H   0  0  0  0  0  0  0  0  0  0  0  0
    1.1874    1.6912   35.5264 H   0  0  0  0  0  0  0  0  0  0  0  0
   -2.3164    1.3460   34.8340 H   0  0  0  0  0  0  0  0  0  0  0  0
   -0.7968    2.0574   34.2686 H   0  0  0  0  0  0  0  0  0  0  0  0
   -1.5206   -0.9352   34.3240 H   0  0  0  0  0  0  0  0  0  0  0  0
   -1.3947    0.0957   32.8730 H   0  0  0  0  0  0  0  0  0  0  0  0
  1  2  2  0
  2  3  2  0
  2  4  1  0
  4  5  1  0
  5  6  1  0
  6  7  1  0
  7  8  1  0
  8  9  1  0
  8 10  1  0
 10 11  1  0
 11 12  1  0
 12 13  1  0
 13 14  1  0
 14 15  1  0
 15 16  1  0
 16 17  1  0
 17 18  1  0
 18 19  1  0
 19 20  2  0
 20 21  1  0
 21 22  2  0
 22 23  1  0
 23 24  2  0
 18 25  1  0
 25 26  2  0
 25 27  2  0
  2 28  1  0
 28 29  1  0
 29 30  1  0
 30 31  1  0
 31 32  1  0
 32 33  1  0
 14  5  1  0
 25 15  1  0
 33 28  1  0
  9  6  1  0
 24 19  1  0
 13  8  1  0
  4 34  1  0
  5 35  1  0
  6 36  1  0
  7 37  1  0
  7 38  1  0
  9 39  1  0
  9 40  1  0
 10 41  1  0
 11 42  1  0
 12 43  1  0
 12 44  1  0
 14 45  1  0
 16 46  1  0
 16 47  1  0
 17 48  1  0
 17 49  1  0
 18 50  1  0
 20 51  1  0
 21 52  1  0
 22 53  1  0
 23 54  1  0
 24 55  1  0
 29 56  1  0
 29 57  1  0
 30 58  1  0
 30 59  1  0
 32 60  1  0
 32 61  1  0
 33 62  1  0
 33 63  1  0
M  END
>  <Energy>  (505) 
-106.94576642111829

>  <compound_id>  (505) 
4146

>  <target_id>  (505) 
1

>  <reference_id>  (505) 
187

>  <inspiration_ids>  (505) 
[145, 187]

>  <energy_score>  (505) 
-126.50899624269326

>  <distance_score>  (505) 
0.9097490637625651

>  <path>  (505) 
/opt/xchem-fragalysis-2/maxwin/BulkDock/SCRATCH/505735/C4146-P187/C4146-P187.minimised.mol

>  <scratch_subdir>  (505) 
/opt/xchem-fragalysis-2/maxwin/BulkDock/SCRATCH/505735/C4146-P187

>  <fragmenstein_runtime>  (505) 
16.631680011749268

>  <fragmenstein_outcome>  (505) 
acceptable

>  <fragmenstein_mode>  (505) 
expansion

>  <fragmenstein_error>  (505) 


$$$$
C4149-P145
     RDKit          3D

 37 40  0  0  0  0  0  0  0  0999 V2000
   -1.1624   -3.7320   36.9626 O   0  0  0  0  0  0  0  0  0  0  0  0
    0.0828   -3.4001   36.3081 S   0  0  0  0  0  0  0  0  0  0  0  0
    0.8848   -2.2837   36.7708 O   0  0  0  0  0  0  0  0  0  0  0  0
    0.9600   -4.7219   36.3467 N   0  0  0  0  0  0  0  0  0  0  0  0
    1.4084   -5.2821   35.2866 C   0  0  0  0  0  0  0  0  0  0  0  0
    2.2668   -6.5220   35.5612 C   0  0  0  0  0  0  0  0  0  0  0  0
    2.1591   -7.0866   36.9544 C   0  0  0  0  0  0  0  0  0  0  0  0
    1.1491   -7.9240   37.4736 C   0  0  0  0  0  0  0  0  0  0  0  0
    1.5348   -8.2225   38.7575 C   0  0  0  0  0  0  0  0  0  0  0  0
    2.6833   -7.5319   38.9663 N   0  0  0  0  0  0  0  0  0  0  0  0
    3.1140   -6.8767   37.8708 N   0  0  0  0  0  0  0  0  0  0  0  0
    1.2154   -4.8486   33.9735 N   0  0  0  0  0  0  0  0  0  0  0  0
    0.3952   -3.7380   33.6177 C   0  0  0  0  0  0  0  0  0  0  0  0
   -0.2802   -3.0414   34.6221 C   0  0  0  0  0  0  0  0  0  0  0  0
   -1.1891   -2.0100   34.3533 C   0  0  0  0  0  0  0  0  0  0  0  0
   -1.4543   -1.6393   33.0413 C   0  0  0  0  0  0  0  0  0  0  0  0
   -0.7863   -2.2661   31.9849 C   0  0  0  0  0  0  0  0  0  0  0  0
    0.1815   -3.2804   32.2738 C   0  0  0  0  0  0  0  0  0  0  0  0
    0.9316   -3.8731   31.1001 C   0  0  0  0  0  0  0  0  0  0  0  0
    0.7705   -3.0386   29.8150 C   0  0  0  0  0  0  0  0  0  0  0  0
   -0.6417   -2.7734   29.5759 N   0  0  0  0  0  0  0  0  0  0  0  0
   -1.1098   -1.8220   30.5737 C   0  0  0  0  0  0  0  0  0  0  0  0
    3.3079   -6.2574   35.3400 H   0  0  0  0  0  0  0  0  0  0  0  0
    1.9720   -7.2954   34.8446 H   0  0  0  0  0  0  0  0  0  0  0  0
    0.2608   -8.2779   36.9738 H   0  0  0  0  0  0  0  0  0  0  0  0
    1.0882   -8.8388   39.5260 H   0  0  0  0  0  0  0  0  0  0  0  0
    3.2441   -7.4834   39.8107 H   0  0  0  0  0  0  0  0  0  0  0  0
    1.7022   -5.3035   33.2148 H   0  0  0  0  0  0  0  0  0  0  0  0
   -1.6984   -1.5073   35.1735 H   0  0  0  0  0  0  0  0  0  0  0  0
   -2.1843   -0.8567   32.8482 H   0  0  0  0  0  0  0  0  0  0  0  0
    0.5587   -4.8907   30.9286 H   0  0  0  0  0  0  0  0  0  0  0  0
    1.9990   -3.9328   31.3396 H   0  0  0  0  0  0  0  0  0  0  0  0
    1.3476   -2.1067   29.8734 H   0  0  0  0  0  0  0  0  0  0  0  0
    1.1793   -3.6102   28.9742 H   0  0  0  0  0  0  0  0  0  0  0  0
   -0.7839   -2.3696   28.6459 H   0  0  0  0  0  0  0  0  0  0  0  0
   -2.1952   -1.7273   30.4715 H   0  0  0  0  0  0  0  0  0  0  0  0
   -0.6688   -0.8328   30.3992 H   0  0  0  0  0  0  0  0  0  0  0  0
  1  2  2  0
  2  3  2  0
  2  4  1  0
  4  5  2  0
  5  6  1  0
  6  7  1  0
  7  8  1  0
  8  9  2  0
  9 10  1  0
 10 11  1  0
  5 12  1  0
 12 13  1  0
 13 14  2  0
 14 15  1  0
 15 16  2  0
 16 17  1  0
 17 18  2  0
 18 19  1  0
 19 20  1  0
 20 21  1  0
 21 22  1  0
 14  2  1  0
 22 17  1  0
 11  7  2  0
 18 13  1  0
  6 23  1  0
  6 24  1  0
  8 25  1  0
  9 26  1  0
 10 27  1  0
 12 28  1  0
 15 29  1  0
 16 30  1  0
 19 31  1  0
 19 32  1  0
 20 33  1  0
 20 34  1  0
 21 35  1  0
 22 36  1  0
 22 37  1  0
M  END
>  <Energy>  (506) 
27.12785729119766

>  <compound_id>  (506) 
4149

>  <target_id>  (506) 
1

>  <reference_id>  (506) 
145

>  <inspiration_ids>  (506) 
[145, 190]

>  <energy_score>  (506) 
-29.347814145596217

>  <distance_score>  (506) 
2.4050883671632333

>  <path>  (506) 
/opt/xchem-fragalysis-2/maxwin/BulkDock/SCRATCH/505735/C4149-P145/C4149-P145.minimised.mol

>  <scratch_subdir>  (506) 
/opt/xchem-fragalysis-2/maxwin/BulkDock/SCRATCH/505735/C4149-P145

>  <fragmenstein_runtime>  (506) 
19.634888172149658

>  <fragmenstein_outcome>  (506) 
too moved

>  <fragmenstein_mode>  (506) 
expansion

>  <fragmenstein_error>  (506) 


$$$$
C4149-P190
     RDKit          3D

 37 40  0  0  0  0  0  0  0  0999 V2000
   -1.4979   -4.1510   36.7745 O   0  0  0  0  0  0  0  0  0  0  0  0
   -0.2606   -3.6233   36.2428 S   0  0  0  0  0  0  0  0  0  0  0  0
    0.3470   -2.4412   36.8260 O   0  0  0  0  0  0  0  0  0  0  0  0
    0.7982   -4.8094   36.2867 N   0  0  0  0  0  0  0  0  0  0  0  0
    1.2422   -5.3672   35.2217 C   0  0  0  0  0  0  0  0  0  0  0  0
    2.1565   -6.5700   35.4722 C   0  0  0  0  0  0  0  0  0  0  0  0
    2.1190   -7.1542   36.8600 C   0  0  0  0  0  0  0  0  0  0  0  0
    3.1431   -7.1365   37.8404 C   0  0  0  0  0  0  0  0  0  0  0  0
    2.6590   -7.8846   38.8866 C   0  0  0  0  0  0  0  0  0  0  0  0
    1.4062   -8.2816   38.5186 N   0  0  0  0  0  0  0  0  0  0  0  0
    1.0662   -7.8702   37.2780 N   0  0  0  0  0  0  0  0  0  0  0  0
    1.0180   -4.9510   33.9080 N   0  0  0  0  0  0  0  0  0  0  0  0
    0.1756   -3.8604   33.5526 C   0  0  0  0  0  0  0  0  0  0  0  0
   -0.5474   -3.2074   34.5518 C   0  0  0  0  0  0  0  0  0  0  0  0
   -1.4382   -2.1614   34.2802 C   0  0  0  0  0  0  0  0  0  0  0  0
   -1.6018   -1.7035   32.9785 C   0  0  0  0  0  0  0  0  0  0  0  0
   -0.8506   -2.2565   31.9357 C   0  0  0  0  0  0  0  0  0  0  0  0
    0.0642   -3.3169   32.2260 C   0  0  0  0  0  0  0  0  0  0  0  0
    0.8877   -3.8490   31.0737 C   0  0  0  0  0  0  0  0  0  0  0  0
    0.9525   -2.8508   29.9045 C   0  0  0  0  0  0  0  0  0  0  0  0
   -0.3714   -2.4028   29.5004 N   0  0  0  0  0  0  0  0  0  0  0  0
   -0.9809   -1.6278   30.5641 C   0  0  0  0  0  0  0  0  0  0  0  0
    3.1794   -6.2530   35.2339 H   0  0  0  0  0  0  0  0  0  0  0  0
    1.8900   -7.3506   34.7490 H   0  0  0  0  0  0  0  0  0  0  0  0
    4.1084   -6.6537   37.7856 H   0  0  0  0  0  0  0  0  0  0  0  0
    3.0753   -8.1604   39.8446 H   0  0  0  0  0  0  0  0  0  0  0  0
    0.7593   -8.8812   39.0266 H   0  0  0  0  0  0  0  0  0  0  0  0
    1.3896   -5.4933   33.1404 H   0  0  0  0  0  0  0  0  0  0  0  0
   -1.9913   -1.6961   35.0944 H   0  0  0  0  0  0  0  0  0  0  0  0
   -2.2894   -0.8823   32.7879 H   0  0  0  0  0  0  0  0  0  0  0  0
    0.4414   -4.7922   30.7354 H   0  0  0  0  0  0  0  0  0  0  0  0
    1.9113   -4.0545   31.4066 H   0  0  0  0  0  0  0  0  0  0  0  0
    1.4397   -3.3363   29.0512 H   0  0  0  0  0  0  0  0  0  0  0  0
    1.5810   -1.9900   30.1680 H   0  0  0  0  0  0  0  0  0  0  0  0
   -0.9702   -3.1862   29.2440 H   0  0  0  0  0  0  0  0  0  0  0  0
   -2.0388   -1.4816   30.3281 H   0  0  0  0  0  0  0  0  0  0  0  0
   -0.5189   -0.6330   30.5946 H   0  0  0  0  0  0  0  0  0  0  0  0
  1  2  2  0
  2  3  2  0
  2  4  1  0
  4  5  2  0
  5  6  1  0
  6  7  1  0
  7  8  1  0
  8  9  2  0
  9 10  1  0
 10 11  1  0
  5 12  1  0
 12 13  1  0
 13 14  2  0
 14 15  1  0
 15 16  2  0
 16 17  1  0
 17 18  2  0
 18 19  1  0
 19 20  1  0
 20 21  1  0
 21 22  1  0
 14  2  1  0
 22 17  1  0
 11  7  2  0
 18 13  1  0
  6 23  1  0
  6 24  1  0
  8 25  1  0
  9 26  1  0
 10 27  1  0
 12 28  1  0
 15 29  1  0
 16 30  1  0
 19 31  1  0
 19 32  1  0
 20 33  1  0
 20 34  1  0
 21 35  1  0
 22 36  1  0
 22 37  1  0
M  END
>  <Energy>  (507) 
27.752902250084659

>  <compound_id>  (507) 
4149

>  <target_id>  (507) 
1

>  <reference_id>  (507) 
190

>  <inspiration_ids>  (507) 
[145, 190]

>  <energy_score>  (507) 
-28.722769186709037

>  <distance_score>  (507) 
2.2347084876422114

>  <path>  (507) 
/opt/xchem-fragalysis-2/maxwin/BulkDock/SCRATCH/505735/C4149-P190/C4149-P190.minimised.mol

>  <scratch_subdir>  (507) 
/opt/xchem-fragalysis-2/maxwin/BulkDock/SCRATCH/505735/C4149-P190

>  <fragmenstein_runtime>  (507) 
19.49167513847351

>  <fragmenstein_outcome>  (507) 
too moved

>  <fragmenstein_mode>  (507) 
expansion

>  <fragmenstein_error>  (507) 


$$$$
C4152-P145
     RDKit          3D

 36 38  0  0  0  0  0  0  0  0999 V2000
   -1.5205   -4.4929   31.6291 O   0  0  0  0  0  0  0  0  0  0  0  0
   -0.5319   -4.7648   31.0776 C   0  0  0  0  0  0  0  0  0  0  0  0
    0.1017   -6.1297   31.1789 C   0  0  0  0  0  0  0  0  0  0  0  0
   -0.4142   -6.8321   32.3745 C   0  0  0  0  0  0  0  0  0  0  0  0
   -0.0378   -6.7619   33.6982 C   0  0  0  0  0  0  0  0  0  0  0  0
   -0.9533   -7.5818   34.3706 C   0  0  0  0  0  0  0  0  0  0  0  0
   -1.8482   -8.1141   33.5430 N   0  0  0  0  0  0  0  0  0  0  0  0
   -1.5081   -7.6460   32.3423 N   0  0  0  0  0  0  0  0  0  0  0  0
    0.3504   -3.9222   30.1322 N   0  0  0  0  0  0  0  0  0  0  0  0
    0.2537   -2.5900   29.7585 C   0  0  0  0  0  0  0  0  0  0  0  0
    1.0466   -2.2303   28.6577 C   0  0  0  0  0  0  0  0  0  0  0  0
    1.9181   -3.1584   28.1363 O   0  0  0  0  0  0  0  0  0  0  0  0
    0.9541   -0.9705   28.0879 C   0  0  0  0  0  0  0  0  0  0  0  0
    0.0780   -0.0517   28.6295 C   0  0  0  0  0  0  0  0  0  0  0  0
   -0.6456   -0.3596   29.7859 C   0  0  0  0  0  0  0  0  0  0  0  0
   -0.5570   -1.6320   30.3832 C   0  0  0  0  0  0  0  0  0  0  0  0
   -1.3242   -1.8570   31.6650 C   0  0  0  0  0  0  0  0  0  0  0  0
   -1.7121   -0.5613   32.3752 C   0  0  0  0  0  0  0  0  0  0  0  0
   -2.3802    0.3248   31.4242 N   0  0  0  0  0  0  0  0  0  0  0  0
   -1.4187    0.7590   30.4155 C   0  0  0  0  0  0  0  0  0  0  0  0
   -0.0966   -6.6888   30.2597 H   0  0  0  0  0  0  0  0  0  0  0  0
    1.1694   -5.9772   31.3017 H   0  0  0  0  0  0  0  0  0  0  0  0
    0.7641   -6.1772   34.1264 H   0  0  0  0  0  0  0  0  0  0  0  0
   -1.0099   -7.8148   35.4259 H   0  0  0  0  0  0  0  0  0  0  0  0
   -2.1247   -7.8698   31.5721 H   0  0  0  0  0  0  0  0  0  0  0  0
    1.0979   -4.4985   29.7631 H   0  0  0  0  0  0  0  0  0  0  0  0
    2.3875   -2.7221   27.4045 H   0  0  0  0  0  0  0  0  0  0  0  0
    1.5599   -0.6825   27.2374 H   0  0  0  0  0  0  0  0  0  0  0  0
    0.0048    0.9384   28.1827 H   0  0  0  0  0  0  0  0  0  0  0  0
   -2.2516   -2.3858   31.4211 H   0  0  0  0  0  0  0  0  0  0  0  0
   -0.7143   -2.4249   32.3741 H   0  0  0  0  0  0  0  0  0  0  0  0
   -2.3959   -0.7877   33.2008 H   0  0  0  0  0  0  0  0  0  0  0  0
   -0.8361   -0.0676   32.8146 H   0  0  0  0  0  0  0  0  0  0  0  0
   -3.0865   -0.2273   30.9403 H   0  0  0  0  0  0  0  0  0  0  0  0
   -1.9626    1.2902   29.6276 H   0  0  0  0  0  0  0  0  0  0  0  0
   -0.7105    1.4644   30.8671 H   0  0  0  0  0  0  0  0  0  0  0  0
  1  2  2  0
  2  3  1  0
  3  4  1  0
  4  5  2  0
  5  6  1  0
  6  7  2  0
  7  8  1  0
  2  9  1  0
  9 10  1  0
 10 11  2  0
 11 12  1  0
 11 13  1  0
 13 14  2  0
 14 15  1  0
 15 16  2  0
 16 17  1  0
 17 18  1  0
 18 19  1  0
 19 20  1  0
  8  4  1  0
 16 10  1  0
 20 15  1  0
  3 21  1  0
  3 22  1  0
  5 23  1  0
  6 24  1  0
  8 25  1  0
  9 26  1  0
 12 27  1  0
 13 28  1  0
 14 29  1  0
 17 30  1  0
 17 31  1  0
 18 32  1  0
 18 33  1  0
 19 34  1  0
 20 35  1  0
 20 36  1  0
M  END
>  <Energy>  (508) 
66.554526561515232

>  <compound_id>  (508) 
4152

>  <target_id>  (508) 
1

>  <reference_id>  (508) 
145

>  <inspiration_ids>  (508) 
[145, 196]

>  <energy_score>  (508) 
-30.014135289791398

>  <distance_score>  (508) 
1.6359184930452397

>  <path>  (508) 
/opt/xchem-fragalysis-2/maxwin/BulkDock/SCRATCH/505735/C4152-P145/C4152-P145.minimised.mol

>  <scratch_subdir>  (508) 
/opt/xchem-fragalysis-2/maxwin/BulkDock/SCRATCH/505735/C4152-P145

>  <fragmenstein_runtime>  (508) 
2.693305015563965

>  <fragmenstein_outcome>  (508) 
too moved

>  <fragmenstein_mode>  (508) 
expansion

>  <fragmenstein_error>  (508) 


$$$$
C4152-P196
     RDKit          3D

 36 38  0  0  0  0  0  0  0  0999 V2000
    1.0308   -4.0603   31.9507 O   0  0  0  0  0  0  0  0  0  0  0  0
    0.7056   -4.5801   30.9536 C   0  0  0  0  0  0  0  0  0  0  0  0
    1.0303   -6.0203   30.6857 C   0  0  0  0  0  0  0  0  0  0  0  0
    0.0024   -6.8857   31.3040 C   0  0  0  0  0  0  0  0  0  0  0  0
   -0.5786   -6.8691   32.5542 C   0  0  0  0  0  0  0  0  0  0  0  0
   -1.4462   -7.9670   32.5502 C   0  0  0  0  0  0  0  0  0  0  0  0
   -1.4631   -8.5944   31.3722 N   0  0  0  0  0  0  0  0  0  0  0  0
   -0.5029   -7.9827   30.6729 N   0  0  0  0  0  0  0  0  0  0  0  0
   -0.1166   -4.0305   29.7506 N   0  0  0  0  0  0  0  0  0  0  0  0
   -0.6012   -2.7597   29.5005 C   0  0  0  0  0  0  0  0  0  0  0  0
   -0.7320   -2.3249   28.1788 C   0  0  0  0  0  0  0  0  0  0  0  0
   -0.6816   -3.2083   27.1409 O   0  0  0  0  0  0  0  0  0  0  0  0
   -0.8944   -0.9828   27.8715 C   0  0  0  0  0  0  0  0  0  0  0  0
   -0.8624   -0.0522   28.8961 C   0  0  0  0  0  0  0  0  0  0  0  0
   -0.7853   -0.4952   30.2154 C   0  0  0  0  0  0  0  0  0  0  0  0
   -0.8025   -1.8582   30.5292 C   0  0  0  0  0  0  0  0  0  0  0  0
   -1.0499   -2.2019   31.9792 C   0  0  0  0  0  0  0  0  0  0  0  0
   -2.0310   -1.2039   32.6326 C   0  0  0  0  0  0  0  0  0  0  0  0
   -1.9201    0.2055   32.1926 N   0  0  0  0  0  0  0  0  0  0  0  0
   -0.7131    0.4166   31.3955 C   0  0  0  0  0  0  0  0  0  0  0  0
    1.1729   -6.2115   29.6204 H   0  0  0  0  0  0  0  0  0  0  0  0
    1.9921   -6.1821   31.1763 H   0  0  0  0  0  0  0  0  0  0  0  0
   -0.3900   -6.1719   33.3605 H   0  0  0  0  0  0  0  0  0  0  0  0
   -2.0709   -8.3330   33.3525 H   0  0  0  0  0  0  0  0  0  0  0  0
   -0.2315   -8.3898   29.7823 H   0  0  0  0  0  0  0  0  0  0  0  0
   -0.1445   -4.7263   29.0123 H   0  0  0  0  0  0  0  0  0  0  0  0
   -1.5777   -3.6203   27.1540 H   0  0  0  0  0  0  0  0  0  0  0  0
   -0.9833   -0.6660   26.8418 H   0  0  0  0  0  0  0  0  0  0  0  0
   -0.8990    1.0090   28.6614 H   0  0  0  0  0  0  0  0  0  0  0  0
   -1.4639   -3.2103   32.0853 H   0  0  0  0  0  0  0  0  0  0  0  0
   -0.1028   -2.1383   32.5248 H   0  0  0  0  0  0  0  0  0  0  0  0
   -3.0577   -1.5334   32.4262 H   0  0  0  0  0  0  0  0  0  0  0  0
   -1.9131   -1.2454   33.7215 H   0  0  0  0  0  0  0  0  0  0  0  0
   -2.7062    0.3809   31.5653 H   0  0  0  0  0  0  0  0  0  0  0  0
   -0.5991    1.4534   31.0800 H   0  0  0  0  0  0  0  0  0  0  0  0
    0.1876    0.2127   31.9900 H   0  0  0  0  0  0  0  0  0  0  0  0
  1  2  2  0
  2  3  1  0
  3  4  1  0
  4  5  2  0
  5  6  1  0
  6  7  2  0
  7  8  1  0
  2  9  1  0
  9 10  1  0
 10 11  2  0
 11 12  1  0
 11 13  1  0
 13 14  2  0
 14 15  1  0
 15 16  2  0
 16 17  1  0
 17 18  1  0
 18 19  1  0
 19 20  1  0
  8  4  1  0
 16 10  1  0
 20 15  1  0
  3 21  1  0
  3 22  1  0
  5 23  1  0
  6 24  1  0
  8 25  1  0
  9 26  1  0
 12 27  1  0
 13 28  1  0
 14 29  1  0
 17 30  1  0
 17 31  1  0
 18 32  1  0
 18 33  1  0
 19 34  1  0
 20 35  1  0
 20 36  1  0
M  END
>  <Energy>  (509) 
81.693975467952981

>  <compound_id>  (509) 
4152

>  <target_id>  (509) 
1

>  <reference_id>  (509) 
196

>  <inspiration_ids>  (509) 
[145, 196]

>  <energy_score>  (509) 
-14.874686383351843

>  <distance_score>  (509) 
1.4671546203869092

>  <path>  (509) 
/opt/xchem-fragalysis-2/maxwin/BulkDock/SCRATCH/505735/C4152-P196/C4152-P196.minimised.mol

>  <scratch_subdir>  (509) 
/opt/xchem-fragalysis-2/maxwin/BulkDock/SCRATCH/505735/C4152-P196

>  <fragmenstein_runtime>  (509) 
2.737617254257202

>  <fragmenstein_outcome>  (509) 
too moved

>  <fragmenstein_mode>  (509) 
expansion

>  <fragmenstein_error>  (509) 


$$$$
C4157-P145
     RDKit          3D

 40 42  0  0  0  0  0  0  0  0999 V2000
   -2.2485   -1.5650   32.4821 C   0  0  0  0  0  0  0  0  0  0  0  0
   -0.9088   -2.3386   32.4477 N   0  0  0  0  0  0  0  0  0  0  0  0
   -0.6221   -3.6893   32.0959 C   0  0  0  0  0  0  0  0  0  0  0  0
   -1.3380   -4.5545   31.6492 O   0  0  0  0  0  0  0  0  0  0  0  0
    0.8220   -4.0249   32.4718 C   0  0  0  0  0  0  0  0  0  0  0  0
    0.8445   -5.2182   33.3772 C   0  0  0  0  0  0  0  0  0  0  0  0
    1.5244   -5.4808   34.5457 C   0  0  0  0  0  0  0  0  0  0  0  0
    1.0972   -6.7634   34.9325 C   0  0  0  0  0  0  0  0  0  0  0  0
    0.2532   -7.3017   34.0512 N   0  0  0  0  0  0  0  0  0  0  0  0
    0.0512   -6.3175   33.1599 N   0  0  0  0  0  0  0  0  0  0  0  0
   -0.6721   -1.4077   31.2499 C   0  0  0  0  0  0  0  0  0  0  0  0
   -1.0656   -1.6918   29.9311 C   0  0  0  0  0  0  0  0  0  0  0  0
   -1.7331   -2.8351   29.6066 O   0  0  0  0  0  0  0  0  0  0  0  0
   -0.8298   -0.7918   28.8984 C   0  0  0  0  0  0  0  0  0  0  0  0
   -1.4117   -1.0888   27.7067 O   0  0  0  0  0  0  0  0  0  0  0  0
   -0.0875    0.3507   29.1044 C   0  0  0  0  0  0  0  0  0  0  0  0
    0.4336    0.6025   30.3814 C   0  0  0  0  0  0  0  0  0  0  0  0
    0.1306   -0.2606   31.4651 C   0  0  0  0  0  0  0  0  0  0  0  0
    0.7564    0.0113   32.8184 C   0  0  0  0  0  0  0  0  0  0  0  0
    1.3187    1.4306   32.9422 C   0  0  0  0  0  0  0  0  0  0  0  0
    2.1225    1.7713   31.7706 N   0  0  0  0  0  0  0  0  0  0  0  0
    1.2740    1.8395   30.5816 C   0  0  0  0  0  0  0  0  0  0  0  0
   -2.1806   -0.4786   32.6401 H   0  0  0  0  0  0  0  0  0  0  0  0
   -2.9543   -1.8800   31.7015 H   0  0  0  0  0  0  0  0  0  0  0  0
   -2.7144   -1.9338   33.4060 H   0  0  0  0  0  0  0  0  0  0  0  0
    1.3076   -3.1774   32.9667 H   0  0  0  0  0  0  0  0  0  0  0  0
    1.3733   -4.2364   31.5493 H   0  0  0  0  0  0  0  0  0  0  0  0
    2.2178   -4.8302   35.0599 H   0  0  0  0  0  0  0  0  0  0  0  0
    1.3813   -7.3345   35.8079 H   0  0  0  0  0  0  0  0  0  0  0  0
   -0.6536   -6.4364   32.4341 H   0  0  0  0  0  0  0  0  0  0  0  0
   -1.9501   -2.7686   28.6451 H   0  0  0  0  0  0  0  0  0  0  0  0
   -0.9409   -0.6852   26.9549 H   0  0  0  0  0  0  0  0  0  0  0  0
    0.0959    1.0420   28.2869 H   0  0  0  0  0  0  0  0  0  0  0  0
    1.5699   -0.7102   32.9651 H   0  0  0  0  0  0  0  0  0  0  0  0
    0.0258   -0.1351   33.6212 H   0  0  0  0  0  0  0  0  0  0  0  0
    0.5060    2.1575   33.0700 H   0  0  0  0  0  0  0  0  0  0  0  0
    1.9421    1.4907   33.8412 H   0  0  0  0  0  0  0  0  0  0  0  0
    2.5665    2.6782   31.9085 H   0  0  0  0  0  0  0  0  0  0  0  0
    0.6121    2.7122   30.6415 H   0  0  0  0  0  0  0  0  0  0  0  0
    1.9286    1.9787   29.7135 H   0  0  0  0  0  0  0  0  0  0  0  0
  1  2  1  0
  2  3  1  0
  3  4  2  0
  3  5  1  0
  5  6  1  0
  6  7  2  0
  7  8  1  0
  8  9  2  0
  9 10  1  0
  2 11  1  0
 11 12  2  0
 12 13  1  0
 12 14  1  0
 14 15  1  0
 14 16  2  0
 16 17  1  0
 17 18  2  0
 18 19  1  0
 19 20  1  0
 20 21  1  0
 21 22  1  0
 10  6  1  0
 18 11  1  0
 22 17  1  0
  1 23  1  0
  1 24  1  0
  1 25  1  0
  5 26  1  0
  5 27  1  0
  7 28  1  0
  8 29  1  0
 10 30  1  0
 13 31  1  0
 15 32  1  0
 16 33  1  0
 19 34  1  0
 19 35  1  0
 20 36  1  0
 20 37  1  0
 21 38  1  0
 22 39  1  0
 22 40  1  0
M  END
>  <Energy>  (510) 
126.77365083247804

>  <compound_id>  (510) 
4157

>  <target_id>  (510) 
1

>  <reference_id>  (510) 
145

>  <inspiration_ids>  (510) 
[145, 202]

>  <energy_score>  (510) 
12.199365267155201

>  <distance_score>  (510) 
3.4705733213197196

>  <path>  (510) 
/opt/xchem-fragalysis-2/maxwin/BulkDock/SCRATCH/505735/C4157-P145/C4157-P145.minimised.mol

>  <scratch_subdir>  (510) 
/opt/xchem-fragalysis-2/maxwin/BulkDock/SCRATCH/505735/C4157-P145

>  <fragmenstein_runtime>  (510) 
7.0797343254089355

>  <fragmenstein_outcome>  (510) 
too moved

>  <fragmenstein_mode>  (510) 
expansion

>  <fragmenstein_error>  (510) 


$$$$
C4157-P202
     RDKit          3D

 40 42  0  0  0  0  0  0  0  0999 V2000
   -0.0817   -4.5585   29.8301 C   0  0  0  0  0  0  0  0  0  0  0  0
    0.2170   -4.3006   31.3210 N   0  0  0  0  0  0  0  0  0  0  0  0
    1.3677   -4.6038   32.1072 C   0  0  0  0  0  0  0  0  0  0  0  0
    2.4379   -5.0608   31.7881 O   0  0  0  0  0  0  0  0  0  0  0  0
    1.0398   -4.3450   33.5777 C   0  0  0  0  0  0  0  0  0  0  0  0
    0.3616   -5.5462   34.1336 C   0  0  0  0  0  0  0  0  0  0  0  0
    0.8445   -6.6902   34.7265 C   0  0  0  0  0  0  0  0  0  0  0  0
   -0.2998   -7.4567   34.9968 C   0  0  0  0  0  0  0  0  0  0  0  0
   -1.4237   -6.8660   34.5967 N   0  0  0  0  0  0  0  0  0  0  0  0
   -0.9994   -5.6831   34.1148 N   0  0  0  0  0  0  0  0  0  0  0  0
    0.2721   -2.8416   30.8113 C   0  0  0  0  0  0  0  0  0  0  0  0
   -0.9276   -2.1135   31.0142 C   0  0  0  0  0  0  0  0  0  0  0  0
   -1.9988   -2.7051   31.6488 O   0  0  0  0  0  0  0  0  0  0  0  0
   -1.0726   -0.8060   30.5616 C   0  0  0  0  0  0  0  0  0  0  0  0
   -2.2556   -0.1664   30.7914 O   0  0  0  0  0  0  0  0  0  0  0  0
   -0.0499   -0.1882   29.8728 C   0  0  0  0  0  0  0  0  0  0  0  0
    1.1656   -0.8626   29.6917 C   0  0  0  0  0  0  0  0  0  0  0  0
    1.3811   -2.1525   30.2512 C   0  0  0  0  0  0  0  0  0  0  0  0
    2.7747   -2.7355   30.1430 C   0  0  0  0  0  0  0  0  0  0  0  0
    3.8185   -1.8260   29.4797 C   0  0  0  0  0  0  0  0  0  0  0  0
    3.2414   -1.0880   28.3632 N   0  0  0  0  0  0  0  0  0  0  0  0
    2.2348   -0.1643   28.8810 C   0  0  0  0  0  0  0  0  0  0  0  0
    0.7942   -4.4684   29.1772 H   0  0  0  0  0  0  0  0  0  0  0  0
   -0.2823   -5.6388   29.8249 H   0  0  0  0  0  0  0  0  0  0  0  0
   -0.9953   -4.0993   29.4297 H   0  0  0  0  0  0  0  0  0  0  0  0
    0.4170   -3.4500   33.6843 H   0  0  0  0  0  0  0  0  0  0  0  0
    1.9763   -4.1446   34.1105 H   0  0  0  0  0  0  0  0  0  0  0  0
    1.8761   -6.9331   34.9357 H   0  0  0  0  0  0  0  0  0  0  0  0
   -0.3658   -8.4246   35.4639 H   0  0  0  0  0  0  0  0  0  0  0  0
   -1.7026   -5.0048   33.8229 H   0  0  0  0  0  0  0  0  0  0  0  0
   -2.6709   -1.9941   31.6832 H   0  0  0  0  0  0  0  0  0  0  0  0
   -2.2761    0.6273   30.2248 H   0  0  0  0  0  0  0  0  0  0  0  0
   -0.1757    0.8120   29.4663 H   0  0  0  0  0  0  0  0  0  0  0  0
    2.7368   -3.6704   29.5755 H   0  0  0  0  0  0  0  0  0  0  0  0
    3.1532   -2.9321   31.1496 H   0  0  0  0  0  0  0  0  0  0  0  0
    4.2380   -1.1285   30.2169 H   0  0  0  0  0  0  0  0  0  0  0  0
    4.6549   -2.4394   29.1257 H   0  0  0  0  0  0  0  0  0  0  0  0
    3.9674   -0.5512   27.8901 H   0  0  0  0  0  0  0  0  0  0  0  0
    2.7044    0.6126   29.4973 H   0  0  0  0  0  0  0  0  0  0  0  0
    1.7691    0.3310   28.0208 H   0  0  0  0  0  0  0  0  0  0  0  0
  1  2  1  0
  2  3  1  0
  3  4  2  0
  3  5  1  0
  5  6  1  0
  6  7  2  0
  7  8  1  0
  8  9  2  0
  9 10  1  0
  2 11  1  0
 11 12  2  0
 12 13  1  0
 12 14  1  0
 14 15  1  0
 14 16  2  0
 16 17  1  0
 17 18  2  0
 18 19  1  0
 19 20  1  0
 20 21  1  0
 21 22  1  0
 10  6  1  0
 18 11  1  0
 22 17  1  0
  1 23  1  0
  1 24  1  0
  1 25  1  0
  5 26  1  0
  5 27  1  0
  7 28  1  0
  8 29  1  0
 10 30  1  0
 13 31  1  0
 15 32  1  0
 16 33  1  0
 19 34  1  0
 19 35  1  0
 20 36  1  0
 20 37  1  0
 21 38  1  0
 22 39  1  0
 22 40  1  0
M  END
>  <Energy>  (511) 
130.96191657254104

>  <compound_id>  (511) 
4157

>  <target_id>  (511) 
1

>  <reference_id>  (511) 
202

>  <inspiration_ids>  (511) 
[145, 202]

>  <energy_score>  (511) 
16.387631007216612

>  <distance_score>  (511) 
2.789545488007308

>  <path>  (511) 
/opt/xchem-fragalysis-2/maxwin/BulkDock/SCRATCH/505735/C4157-P202/C4157-P202.minimised.mol

>  <scratch_subdir>  (511) 
/opt/xchem-fragalysis-2/maxwin/BulkDock/SCRATCH/505735/C4157-P202

>  <fragmenstein_runtime>  (511) 
6.487145900726318

>  <fragmenstein_outcome>  (511) 
too moved

>  <fragmenstein_mode>  (511) 
expansion

>  <fragmenstein_error>  (511) 


$$$$
C4158-P146
     RDKit          3D

 60 63  0  0  0  0  0  0  0  0999 V2000
   12.0895    3.4130   15.1776 C   0  0  0  0  0  0  0  0  0  0  0  0
   13.4783    3.1957   14.5859 C   0  0  0  0  0  0  0  0  0  0  0  0
   13.5000    1.9170   13.7774 C   0  0  0  0  0  0  0  0  0  0  0  0
   14.8672    1.2259   13.7007 C   0  0  0  0  0  0  0  0  0  0  0  0
   15.2486    0.4313   14.9643 C   0  0  0  0  0  0  0  0  0  0  0  0
   14.3500   -0.8347   14.9081 C   0  0  0  0  0  0  0  0  0  0  0  0
   14.4067   -1.9862   15.9398 C   0  0  0  0  0  0  0  0  0  0  0  0
   13.2318   -2.8007   16.1303 C   0  0  0  0  0  0  0  0  0  0  0  0
   11.9508   -2.6845   15.3458 C   0  0  0  0  0  0  0  0  0  0  0  0
   13.1981   -3.8085   17.1117 C   0  0  0  0  0  0  0  0  0  0  0  0
   14.2687   -4.0167   17.9514 C   0  0  0  0  0  0  0  0  0  0  0  0
   15.4086   -3.2458   17.7930 C   0  0  0  0  0  0  0  0  0  0  0  0
   15.5080   -2.2575   16.7981 C   0  0  0  0  0  0  0  0  0  0  0  0
   16.7310   -1.5904   16.6967 N   0  0  0  0  0  0  0  0  0  0  0  0
   17.9709   -1.5918   17.6517 C   0  0  0  0  0  0  0  0  0  0  0  0
   18.1198   -2.0911   18.7017 O   0  0  0  0  0  0  0  0  0  0  0  0
   19.0280   -0.6845   17.0176 C   0  0  0  0  0  0  0  0  0  0  0  0
   19.4813   -1.1695   15.6848 C   0  0  0  0  0  0  0  0  0  0  0  0
   19.7543   -2.4295   15.1940 C   0  0  0  0  0  0  0  0  0  0  0  0
   20.1838   -2.2171   13.8724 C   0  0  0  0  0  0  0  0  0  0  0  0
   20.1760   -0.9252   13.5416 N   0  0  0  0  0  0  0  0  0  0  0  0
   19.7703   -0.3065   14.6600 N   0  0  0  0  0  0  0  0  0  0  0  0
   14.3976   -1.1980   13.3806 C   0  0  0  0  0  0  0  0  0  0  0  0
   13.1161   -1.7147   12.8585 N   0  0  0  0  0  0  0  0  0  0  0  0
   12.1173   -0.6576   12.9670 O   0  0  0  0  0  0  0  0  0  0  0  0
   15.5143   -2.2005   13.0538 C   0  0  0  0  0  0  0  0  0  0  0  0
   16.7175   -1.3800   12.6490 C   0  0  0  0  0  0  0  0  0  0  0  0
   16.2252   -0.1132   12.1269 N   0  0  0  0  0  0  0  0  0  0  0  0
   14.8573    0.1046   12.6361 C   0  0  0  0  0  0  0  0  0  0  0  0
   11.3959    3.7194   14.3857 H   0  0  0  0  0  0  0  0  0  0  0  0
   12.1161    4.2205   15.9163 H   0  0  0  0  0  0  0  0  0  0  0  0
   11.6552    2.5253   15.6445 H   0  0  0  0  0  0  0  0  0  0  0  0
   14.2514    3.2120   15.3574 H   0  0  0  0  0  0  0  0  0  0  0  0
   13.7200    4.0427   13.9312 H   0  0  0  0  0  0  0  0  0  0  0  0
   12.7423    1.2431   14.1752 H   0  0  0  0  0  0  0  0  0  0  0  0
   13.1663    2.1646   12.7607 H   0  0  0  0  0  0  0  0  0  0  0  0
   15.6287    1.9824   13.4727 H   0  0  0  0  0  0  0  0  0  0  0  0
   15.1564    0.9908   15.8890 H   0  0  0  0  0  0  0  0  0  0  0  0
   16.3105    0.2232   14.8593 H   0  0  0  0  0  0  0  0  0  0  0  0
   13.3637   -0.4131   15.1299 H   0  0  0  0  0  0  0  0  0  0  0  0
   11.6235   -1.6472   15.2760 H   0  0  0  0  0  0  0  0  0  0  0  0
   12.0354   -3.1823   14.3803 H   0  0  0  0  0  0  0  0  0  0  0  0
   11.1340   -3.1974   15.8592 H   0  0  0  0  0  0  0  0  0  0  0  0
   12.3183   -4.4358   17.2396 H   0  0  0  0  0  0  0  0  0  0  0  0
   14.2266   -4.7824   18.7208 H   0  0  0  0  0  0  0  0  0  0  0  0
   16.2408   -3.4596   18.4586 H   0  0  0  0  0  0  0  0  0  0  0  0
   16.9136   -0.9976   15.9119 H   0  0  0  0  0  0  0  0  0  0  0  0
   19.8897   -0.6400   17.6941 H   0  0  0  0  0  0  0  0  0  0  0  0
   18.6111    0.3277   16.9541 H   0  0  0  0  0  0  0  0  0  0  0  0
   19.6693   -3.3719   15.7191 H   0  0  0  0  0  0  0  0  0  0  0  0
   20.5001   -2.9479   13.1385 H   0  0  0  0  0  0  0  0  0  0  0  0
   19.7125    0.7075   14.6472 H   0  0  0  0  0  0  0  0  0  0  0  0
   13.2289   -1.8098   11.8324 H   0  0  0  0  0  0  0  0  0  0  0  0
   11.3227   -1.1094   13.3205 H   0  0  0  0  0  0  0  0  0  0  0  0
   15.2367   -2.8615   12.2310 H   0  0  0  0  0  0  0  0  0  0  0  0
   15.7725   -2.8572   13.8865 H   0  0  0  0  0  0  0  0  0  0  0  0
   17.3382   -1.9035   11.9149 H   0  0  0  0  0  0  0  0  0  0  0  0
   17.3412   -1.1877   13.5214 H   0  0  0  0  0  0  0  0  0  0  0  0
   16.2190   -0.1263   11.1097 H   0  0  0  0  0  0  0  0  0  0  0  0
   14.2184    0.3642   11.7839 H   0  0  0  0  0  0  0  0  0  0  0  0
  1  2  1  0
  2  3  1  0
  3  4  1  0
  4  5  1  0
  5  6  1  0
  6  7  1  0
  7  8  2  0
  8  9  1  0
  8 10  1  0
 10 11  2  0
 11 12  1  0
 12 13  2  0
 13 14  1  0
 14 15  1  0
 15 16  2  0
 15 17  1  0
 17 18  1  0
 18 19  2  0
 19 20  1  0
 20 21  2  0
 21 22  1  0
  6 23  1  0
 23 24  1  0
 24 25  1  0
 23 26  1  0
 26 27  1  0
 27 28  1  0
 28 29  1  0
 29  4  1  0
 13  7  1  0
 22 18  1  0
 29 23  1  0
  1 30  1  0
  1 31  1  0
  1 32  1  0
  2 33  1  0
  2 34  1  0
  3 35  1  0
  3 36  1  0
  4 37  1  0
  5 38  1  0
  5 39  1  0
  6 40  1  0
  9 41  1  0
  9 42  1  0
  9 43  1  0
 10 44  1  0
 11 45  1  0
 12 46  1  0
 14 47  1  0
 17 48  1  0
 17 49  1  0
 19 50  1  0
 20 51  1  0
 22 52  1  0
 24 53  1  0
 25 54  1  0
 26 55  1  0
 26 56  1  0
 27 57  1  0
 27 58  1  0
 28 59  1  0
 29 60  1  0
M  END
>  <Energy>  (512) 
156.62310216562204

>  <compound_id>  (512) 
4158

>  <target_id>  (512) 
1

>  <reference_id>  (512) 
146

>  <inspiration_ids>  (512) 
[146, 6]

>  <energy_score>  (512) 
-65.54583097543986

>  <distance_score>  (512) 
1.886913696369602

>  <path>  (512) 
/opt/xchem-fragalysis-2/maxwin/BulkDock/SCRATCH/505735/C4158-P146/C4158-P146.minimised.mol

>  <scratch_subdir>  (512) 
/opt/xchem-fragalysis-2/maxwin/BulkDock/SCRATCH/505735/C4158-P146

>  <fragmenstein_runtime>  (512) 
8.667869567871094

>  <fragmenstein_outcome>  (512) 
too moved

>  <fragmenstein_mode>  (512) 
expansion

>  <fragmenstein_error>  (512) 


$$$$
C4158-P6
     RDKit          3D

 60 63  0  0  0  0  0  0  0  0999 V2000
   12.0929    2.8460   16.4492 C   0  0  0  0  0  0  0  0  0  0  0  0
   12.9447    1.7873   15.7965 C   0  0  0  0  0  0  0  0  0  0  0  0
   14.2542    2.3544   15.2523 C   0  0  0  0  0  0  0  0  0  0  0  0
   15.2653    1.3382   14.6783 C   0  0  0  0  0  0  0  0  0  0  0  0
   15.5009    0.1321   15.5881 C   0  0  0  0  0  0  0  0  0  0  0  0
   14.4740   -0.9346   15.1342 C   0  0  0  0  0  0  0  0  0  0  0  0
   14.3251   -2.1771   16.0458 C   0  0  0  0  0  0  0  0  0  0  0  0
   13.0454   -2.7910   16.2239 C   0  0  0  0  0  0  0  0  0  0  0  0
   11.7905   -2.5687   15.4234 C   0  0  0  0  0  0  0  0  0  0  0  0
   12.8237   -3.6477   17.3123 C   0  0  0  0  0  0  0  0  0  0  0  0
   13.6947   -3.6962   18.3797 C   0  0  0  0  0  0  0  0  0  0  0  0
   14.9348   -3.1183   18.2458 C   0  0  0  0  0  0  0  0  0  0  0  0
   15.2884   -2.4761   17.0520 C   0  0  0  0  0  0  0  0  0  0  0  0
   16.6501   -2.2217   16.9769 N   0  0  0  0  0  0  0  0  0  0  0  0
   17.6498   -2.4318   15.8121 C   0  0  0  0  0  0  0  0  0  0  0  0
   17.4679   -2.7780   14.7141 O   0  0  0  0  0  0  0  0  0  0  0  0
   19.0243   -2.0127   16.3506 C   0  0  0  0  0  0  0  0  0  0  0  0
   19.8428   -1.5226   15.2151 C   0  0  0  0  0  0  0  0  0  0  0  0
   20.6592   -2.1965   14.3359 C   0  0  0  0  0  0  0  0  0  0  0  0
   21.0312   -1.2300   13.3885 C   0  0  0  0  0  0  0  0  0  0  0  0
   20.5233   -0.0260   13.6610 N   0  0  0  0  0  0  0  0  0  0  0  0
   19.7972   -0.2308   14.7690 N   0  0  0  0  0  0  0  0  0  0  0  0
   14.4463   -0.7836   13.5648 C   0  0  0  0  0  0  0  0  0  0  0  0
   13.1051   -0.9524   12.9784 N   0  0  0  0  0  0  0  0  0  0  0  0
   12.8624   -2.3728   13.0022 O   0  0  0  0  0  0  0  0  0  0  0  0
   15.4688   -1.5791   12.7500 C   0  0  0  0  0  0  0  0  0  0  0  0
   16.6395   -0.6448   12.5418 C   0  0  0  0  0  0  0  0  0  0  0  0
   16.0152    0.6679   12.3848 N   0  0  0  0  0  0  0  0  0  0  0  0
   14.8756    0.7179   13.3184 C   0  0  0  0  0  0  0  0  0  0  0  0
   12.5898    3.2679   17.3289 H   0  0  0  0  0  0  0  0  0  0  0  0
   11.1336    2.4287   16.7685 H   0  0  0  0  0  0  0  0  0  0  0  0
   11.8818    3.6646   15.7534 H   0  0  0  0  0  0  0  0  0  0  0  0
   12.3696    1.3205   14.9912 H   0  0  0  0  0  0  0  0  0  0  0  0
   13.1361    1.0509   16.5818 H   0  0  0  0  0  0  0  0  0  0  0  0
   14.0359    3.1103   14.4874 H   0  0  0  0  0  0  0  0  0  0  0  0
   14.7554    2.8895   16.0705 H   0  0  0  0  0  0  0  0  0  0  0  0
   16.2073    1.8958   14.5842 H   0  0  0  0  0  0  0  0  0  0  0  0
   16.5257   -0.2050   15.4359 H   0  0  0  0  0  0  0  0  0  0  0  0
   15.4002    0.3952   16.6471 H   0  0  0  0  0  0  0  0  0  0  0  0
   13.5297   -0.4715   15.4107 H   0  0  0  0  0  0  0  0  0  0  0  0
   11.6639   -3.3354   14.6593 H   0  0  0  0  0  0  0  0  0  0  0  0
   10.9139   -2.6573   16.0684 H   0  0  0  0  0  0  0  0  0  0  0  0
   11.6963   -1.5548   15.0499 H   0  0  0  0  0  0  0  0  0  0  0  0
   11.9011   -4.2166   17.3750 H   0  0  0  0  0  0  0  0  0  0  0  0
   13.4214   -4.2287   19.2861 H   0  0  0  0  0  0  0  0  0  0  0  0
   15.6559   -3.2566   19.0475 H   0  0  0  0  0  0  0  0  0  0  0  0
   17.1585   -1.9946   17.8223 H   0  0  0  0  0  0  0  0  0  0  0  0
   19.4880   -2.8858   16.8214 H   0  0  0  0  0  0  0  0  0  0  0  0
   18.9296   -1.2211   17.1017 H   0  0  0  0  0  0  0  0  0  0  0  0
   20.9050   -3.2490   14.3417 H   0  0  0  0  0  0  0  0  0  0  0  0
   21.6512   -1.3518   12.5095 H   0  0  0  0  0  0  0  0  0  0  0  0
   19.2735    0.5520   15.1459 H   0  0  0  0  0  0  0  0  0  0  0  0
   12.4093   -0.5468   13.5996 H   0  0  0  0  0  0  0  0  0  0  0  0
   11.9494   -2.4663   12.6745 H   0  0  0  0  0  0  0  0  0  0  0  0
   15.0697   -1.8307   11.7560 H   0  0  0  0  0  0  0  0  0  0  0  0
   15.7296   -2.5283   13.2156 H   0  0  0  0  0  0  0  0  0  0  0  0
   17.2219   -0.9137   11.6557 H   0  0  0  0  0  0  0  0  0  0  0  0
   17.3143   -0.6366   13.3978 H   0  0  0  0  0  0  0  0  0  0  0  0
   16.6908    1.4113   12.5388 H   0  0  0  0  0  0  0  0  0  0  0  0
   14.0856    1.3137   12.8460 H   0  0  0  0  0  0  0  0  0  0  0  0
  1  2  1  0
  2  3  1  0
  3  4  1  0
  4  5  1  0
  5  6  1  0
  6  7  1  0
  7  8  2  0
  8  9  1  0
  8 10  1  0
 10 11  2  0
 11 12  1  0
 12 13  2  0
 13 14  1  0
 14 15  1  0
 15 16  2  0
 15 17  1  0
 17 18  1  0
 18 19  2  0
 19 20  1  0
 20 21  2  0
 21 22  1  0
  6 23  1  0
 23 24  1  0
 24 25  1  0
 23 26  1  0
 26 27  1  0
 27 28  1  0
 28 29  1  0
 29  4  1  0
 13  7  1  0
 22 18  1  0
 29 23  1  0
  1 30  1  0
  1 31  1  0
  1 32  1  0
  2 33  1  0
  2 34  1  0
  3 35  1  0
  3 36  1  0
  4 37  1  0
  5 38  1  0
  5 39  1  0
  6 40  1  0
  9 41  1  0
  9 42  1  0
  9 43  1  0
 10 44  1  0
 11 45  1  0
 12 46  1  0
 14 47  1  0
 17 48  1  0
 17 49  1  0
 19 50  1  0
 20 51  1  0
 22 52  1  0
 24 53  1  0
 25 54  1  0
 26 55  1  0
 26 56  1  0
 27 57  1  0
 27 58  1  0
 28 59  1  0
 29 60  1  0
M  END
>  <Energy>  (513) 
193.42915411346564

>  <compound_id>  (513) 
4158

>  <target_id>  (513) 
1

>  <reference_id>  (513) 
6

>  <inspiration_ids>  (513) 
[146, 6]

>  <energy_score>  (513) 
-28.739779027598615

>  <distance_score>  (513) 
1.5940269604081685

>  <path>  (513) 
/opt/xchem-fragalysis-2/maxwin/BulkDock/SCRATCH/505735/C4158-P6/C4158-P6.minimised.mol

>  <scratch_subdir>  (513) 
/opt/xchem-fragalysis-2/maxwin/BulkDock/SCRATCH/505735/C4158-P6

>  <fragmenstein_runtime>  (513) 
7.577652215957642

>  <fragmenstein_outcome>  (513) 
too moved

>  <fragmenstein_mode>  (513) 
expansion

>  <fragmenstein_error>  (513) 


$$$$
C4159-P146
     RDKit          3D

 49 52  0  0  0  0  0  0  0  0999 V2000
   18.1733    1.3860   16.1095 O   0  0  0  0  0  0  0  0  0  0  0  0
   18.0389    1.0240   15.0028 C   0  0  0  0  0  0  0  0  0  0  0  0
   19.0933    1.2402   13.9382 C   0  0  0  0  0  0  0  0  0  0  0  0
   19.7854   -0.0786   13.7810 C   0  0  0  0  0  0  0  0  0  0  0  0
   19.9915   -1.1458   14.6382 C   0  0  0  0  0  0  0  0  0  0  0  0
   20.6263   -2.1185   13.8533 C   0  0  0  0  0  0  0  0  0  0  0  0
   20.8228   -1.6998   12.6037 N   0  0  0  0  0  0  0  0  0  0  0  0
   20.3512   -0.4488   12.5995 N   0  0  0  0  0  0  0  0  0  0  0  0
   16.8941    0.1812   14.3423 N   0  0  0  0  0  0  0  0  0  0  0  0
   15.7926   -0.4327   14.9076 C   0  0  0  0  0  0  0  0  0  0  0  0
   15.8992   -0.7221   16.2493 C   0  0  0  0  0  0  0  0  0  0  0  0
   14.9440   -1.4960   16.8643 C   0  0  0  0  0  0  0  0  0  0  0  0
   15.1836   -1.6464   18.3003 C   0  0  0  0  0  0  0  0  0  0  0  0
   15.4673   -0.6530   18.9706 O   0  0  0  0  0  0  0  0  0  0  0  0
   15.1530   -3.0308   18.9237 C   0  0  0  0  0  0  0  0  0  0  0  0
   13.9862   -3.9300   18.5190 C   0  0  0  0  0  0  0  0  0  0  0  0
   14.2013   -4.5639   17.2509 O   0  0  0  0  0  0  0  0  0  0  0  0
   15.4210   -5.3239   17.3011 C   0  0  0  0  0  0  0  0  0  0  0  0
   16.5960   -4.3997   17.5981 C   0  0  0  0  0  0  0  0  0  0  0  0
   16.4087   -3.7174   18.8417 O   0  0  0  0  0  0  0  0  0  0  0  0
   13.8398   -1.9889   16.1644 C   0  0  0  0  0  0  0  0  0  0  0  0
   13.6960   -1.6787   14.8268 C   0  0  0  0  0  0  0  0  0  0  0  0
   14.6813   -0.8870   14.1992 C   0  0  0  0  0  0  0  0  0  0  0  0
   14.3401   -0.4160   12.8183 C   0  0  0  0  0  0  0  0  0  0  0  0
   12.8577   -0.0150   12.8449 C   0  0  0  0  0  0  0  0  0  0  0  0
   11.9504   -1.1252   13.1579 N   0  0  0  0  0  0  0  0  0  0  0  0
   12.4924   -2.1401   14.0478 C   0  0  0  0  0  0  0  0  0  0  0  0
   18.6286    1.5809   13.0074 H   0  0  0  0  0  0  0  0  0  0  0  0
   19.7972    2.0086   14.2736 H   0  0  0  0  0  0  0  0  0  0  0  0
   19.7030   -1.2193   15.6790 H   0  0  0  0  0  0  0  0  0  0  0  0
   20.9514   -3.1120   14.1353 H   0  0  0  0  0  0  0  0  0  0  0  0
   20.4320    0.0840   11.7389 H   0  0  0  0  0  0  0  0  0  0  0  0
   17.1345   -0.0219   13.3802 H   0  0  0  0  0  0  0  0  0  0  0  0
   16.7472   -0.3705   16.8331 H   0  0  0  0  0  0  0  0  0  0  0  0
   15.0048   -2.8290   19.9938 H   0  0  0  0  0  0  0  0  0  0  0  0
   13.0380   -3.3978   18.4874 H   0  0  0  0  0  0  0  0  0  0  0  0
   13.8639   -4.7248   19.2657 H   0  0  0  0  0  0  0  0  0  0  0  0
   15.3262   -6.0965   18.0720 H   0  0  0  0  0  0  0  0  0  0  0  0
   15.5628   -5.8214   16.3401 H   0  0  0  0  0  0  0  0  0  0  0  0
   16.7272   -3.6609   16.8020 H   0  0  0  0  0  0  0  0  0  0  0  0
   17.5220   -4.9781   17.6705 H   0  0  0  0  0  0  0  0  0  0  0  0
   13.0403   -2.5395   16.6387 H   0  0  0  0  0  0  0  0  0  0  0  0
   14.9382    0.4542   12.5281 H   0  0  0  0  0  0  0  0  0  0  0  0
   14.5317   -1.2148   12.0997 H   0  0  0  0  0  0  0  0  0  0  0  0
   12.7061    0.7785   13.5898 H   0  0  0  0  0  0  0  0  0  0  0  0
   12.5774    0.4210   11.8804 H   0  0  0  0  0  0  0  0  0  0  0  0
   11.0391   -0.7833   13.4710 H   0  0  0  0  0  0  0  0  0  0  0  0
   11.6972   -2.4753   14.7240 H   0  0  0  0  0  0  0  0  0  0  0  0
   12.7820   -3.0120   13.4505 H   0  0  0  0  0  0  0  0  0  0  0  0
  1  2  2  0
  2  3  1  0
  3  4  1  0
  4  5  2  0
  5  6  1  0
  6  7  2  0
  7  8  1  0
  2  9  1  0
  9 10  1  0
 10 11  2  0
 11 12  1  0
 12 13  1  0
 13 14  2  0
 13 15  1  0
 15 16  1  0
 16 17  1  0
 17 18  1  0
 18 19  1  0
 19 20  1  0
 12 21  2  0
 21 22  1  0
 22 23  2  0
 23 24  1  0
 24 25  1  0
 25 26  1  0
 26 27  1  0
  8  4  1  0
 23 10  1  0
 20 15  1  0
 27 22  1  0
  3 28  1  0
  3 29  1  0
  5 30  1  0
  6 31  1  0
  8 32  1  0
  9 33  1  0
 11 34  1  0
 15 35  1  0
 16 36  1  0
 16 37  1  0
 18 38  1  0
 18 39  1  0
 19 40  1  0
 19 41  1  0
 21 42  1  0
 24 43  1  0
 24 44  1  0
 25 45  1  0
 25 46  1  0
 26 47  1  0
 27 48  1  0
 27 49  1  0
M  END
>  <Energy>  (514) 
172.38579695830771

>  <compound_id>  (514) 
4159

>  <target_id>  (514) 
1

>  <reference_id>  (514) 
146

>  <inspiration_ids>  (514) 
[146, 8]

>  <energy_score>  (514) 
-25.629846026820474

>  <distance_score>  (514) 
2.9028085581676524

>  <path>  (514) 
/opt/xchem-fragalysis-2/maxwin/BulkDock/SCRATCH/505735/C4159-P146/C4159-P146.minimised.mol

>  <scratch_subdir>  (514) 
/opt/xchem-fragalysis-2/maxwin/BulkDock/SCRATCH/505735/C4159-P146

>  <fragmenstein_runtime>  (514) 
2.7541146278381348

>  <fragmenstein_outcome>  (514) 
too moved

>  <fragmenstein_mode>  (514) 
expansion

>  <fragmenstein_error>  (514) 


$$$$
C4159-P8
     RDKit          3D

 49 52  0  0  0  0  0  0  0  0999 V2000
   17.3976   -4.4508   15.3081 O   0  0  0  0  0  0  0  0  0  0  0  0
   17.7620   -3.5226   15.9187 C   0  0  0  0  0  0  0  0  0  0  0  0
   19.2361   -3.2105   16.1946 C   0  0  0  0  0  0  0  0  0  0  0  0
   19.6910   -2.2653   15.1343 C   0  0  0  0  0  0  0  0  0  0  0  0
   19.9600   -2.4964   13.8032 C   0  0  0  0  0  0  0  0  0  0  0  0
   20.2599   -1.2347   13.2701 C   0  0  0  0  0  0  0  0  0  0  0  0
   20.1953   -0.2696   14.1888 N   0  0  0  0  0  0  0  0  0  0  0  0
   19.8675   -0.9203   15.3156 N   0  0  0  0  0  0  0  0  0  0  0  0
   16.9584   -2.3275   16.5153 N   0  0  0  0  0  0  0  0  0  0  0  0
   15.6142   -2.0001   16.4030 C   0  0  0  0  0  0  0  0  0  0  0  0
   15.1310   -1.1467   17.3761 C   0  0  0  0  0  0  0  0  0  0  0  0
   13.8812   -0.5702   17.1923 C   0  0  0  0  0  0  0  0  0  0  0  0
   13.7849    0.8472   17.6236 C   0  0  0  0  0  0  0  0  0  0  0  0
   14.2208    1.1511   18.7339 O   0  0  0  0  0  0  0  0  0  0  0  0
   13.2322    1.8888   16.6426 C   0  0  0  0  0  0  0  0  0  0  0  0
   13.9875    1.8652   15.3006 C   0  0  0  0  0  0  0  0  0  0  0  0
   13.2742    1.1346   14.3017 O   0  0  0  0  0  0  0  0  0  0  0  0
   11.9587    1.6641   14.0716 C   0  0  0  0  0  0  0  0  0  0  0  0
   11.3913    2.4237   15.2706 C   0  0  0  0  0  0  0  0  0  0  0  0
   11.8100    1.7974   16.4824 O   0  0  0  0  0  0  0  0  0  0  0  0
   12.9576   -1.1146   16.3094 C   0  0  0  0  0  0  0  0  0  0  0  0
   13.4443   -1.9132   15.2835 C   0  0  0  0  0  0  0  0  0  0  0  0
   14.8253   -2.2189   15.2604 C   0  0  0  0  0  0  0  0  0  0  0  0
   15.4958   -2.2811   13.8906 C   0  0  0  0  0  0  0  0  0  0  0  0
   14.5742   -2.0856   12.6673 C   0  0  0  0  0  0  0  0  0  0  0  0
   13.3069   -1.4088   12.9362 N   0  0  0  0  0  0  0  0  0  0  0  0
   12.6117   -2.0714   14.0363 C   0  0  0  0  0  0  0  0  0  0  0  0
   19.8031   -4.1470   16.1487 H   0  0  0  0  0  0  0  0  0  0  0  0
   19.3705   -2.8015   17.2011 H   0  0  0  0  0  0  0  0  0  0  0  0
   19.9134   -3.4438   13.2828 H   0  0  0  0  0  0  0  0  0  0  0  0
   20.5150   -0.9759   12.2504 H   0  0  0  0  0  0  0  0  0  0  0  0
   19.7809   -0.3753   16.1669 H   0  0  0  0  0  0  0  0  0  0  0  0
   17.5772   -1.7411   17.0571 H   0  0  0  0  0  0  0  0  0  0  0  0
   15.7869   -0.7676   18.1569 H   0  0  0  0  0  0  0  0  0  0  0  0
   13.4399    2.8579   17.1168 H   0  0  0  0  0  0  0  0  0  0  0  0
   14.9909    1.4375   15.3980 H   0  0  0  0  0  0  0  0  0  0  0  0
   14.1236    2.8889   14.9290 H   0  0  0  0  0  0  0  0  0  0  0  0
   11.9815    2.3047   13.1840 H   0  0  0  0  0  0  0  0  0  0  0  0
   11.3143    0.8107   13.8384 H   0  0  0  0  0  0  0  0  0  0  0  0
   11.7250    3.4685   15.2733 H   0  0  0  0  0  0  0  0  0  0  0  0
   10.2975    2.4321   15.2331 H   0  0  0  0  0  0  0  0  0  0  0  0
   11.9609   -0.6908   16.2242 H   0  0  0  0  0  0  0  0  0  0  0  0
   16.2265   -1.4604   13.8621 H   0  0  0  0  0  0  0  0  0  0  0  0
   16.0536   -3.2071   13.7753 H   0  0  0  0  0  0  0  0  0  0  0  0
   15.1195   -1.5218   11.9004 H   0  0  0  0  0  0  0  0  0  0  0  0
   14.3615   -3.0489   12.1942 H   0  0  0  0  0  0  0  0  0  0  0  0
   13.5018   -0.4470   13.2392 H   0  0  0  0  0  0  0  0  0  0  0  0
   11.6312   -1.6002   14.1640 H   0  0  0  0  0  0  0  0  0  0  0  0
   12.4022   -3.1215   13.8210 H   0  0  0  0  0  0  0  0  0  0  0  0
  1  2  2  0
  2  3  1  0
  3  4  1  0
  4  5  2  0
  5  6  1  0
  6  7  2  0
  7  8  1  0
  2  9  1  0
  9 10  1  0
 10 11  2  0
 11 12  1  0
 12 13  1  0
 13 14  2  0
 13 15  1  0
 15 16  1  0
 16 17  1  0
 17 18  1  0
 18 19  1  0
 19 20  1  0
 12 21  2  0
 21 22  1  0
 22 23  2  0
 23 24  1  0
 24 25  1  0
 25 26  1  0
 26 27  1  0
  8  4  1  0
 23 10  1  0
 20 15  1  0
 27 22  1  0
  3 28  1  0
  3 29  1  0
  5 30  1  0
  6 31  1  0
  8 32  1  0
  9 33  1  0
 11 34  1  0
 15 35  1  0
 16 36  1  0
 16 37  1  0
 18 38  1  0
 18 39  1  0
 19 40  1  0
 19 41  1  0
 21 42  1  0
 24 43  1  0
 24 44  1  0
 25 45  1  0
 25 46  1  0
 26 47  1  0
 27 48  1  0
 27 49  1  0
M  END
>  <Energy>  (515) 
188.90155997274087

>  <compound_id>  (515) 
4159

>  <target_id>  (515) 
1

>  <reference_id>  (515) 
8

>  <inspiration_ids>  (515) 
[146, 8]

>  <energy_score>  (515) 
-9.114083012389756

>  <distance_score>  (515) 
2.206538090930828

>  <path>  (515) 
/opt/xchem-fragalysis-2/maxwin/BulkDock/SCRATCH/505735/C4159-P8/C4159-P8.minimised.mol

>  <scratch_subdir>  (515) 
/opt/xchem-fragalysis-2/maxwin/BulkDock/SCRATCH/505735/C4159-P8

>  <fragmenstein_runtime>  (515) 
3.5145654678344727

>  <fragmenstein_outcome>  (515) 
too moved

>  <fragmenstein_mode>  (515) 
expansion

>  <fragmenstein_error>  (515) 


$$$$
C4160-P146
     RDKit          3D

 55 58  0  0  0  0  0  0  0  0999 V2000
   12.6704   -3.8867   13.3437 O   0  0  0  0  0  0  0  0  0  0  0  0
   12.6287   -2.9285   14.0630 C   0  0  0  0  0  0  0  0  0  0  0  0
   11.2330   -2.8298   14.8118 C   0  0  0  0  0  0  0  0  0  0  0  0
   10.4984   -4.2136   14.9210 C   0  0  0  0  0  0  0  0  0  0  0  0
   10.9468   -5.5829   14.9292 C   0  0  0  0  0  0  0  0  0  0  0  0
    9.6643   -7.1078   15.0777 C   0  0  0  0  0  0  0  0  0  0  0  0
    8.5622   -6.2133   14.6194 N   0  0  0  0  0  0  0  0  0  0  0  0
    9.0729   -4.4630   14.9017 N   0  0  0  0  0  0  0  0  0  0  0  0
   13.5768   -1.8658   14.2502 N   0  0  0  0  0  0  0  0  0  0  0  0
   14.8429   -1.5660   13.5337 C   0  0  0  0  0  0  0  0  0  0  0  0
   14.7835   -0.2024   12.8753 C   0  0  0  0  0  0  0  0  0  0  0  0
   15.4676    0.7478   13.8307 C   0  0  0  0  0  0  0  0  0  0  0  0
   14.9454    0.5264   15.2378 C   0  0  0  0  0  0  0  0  0  0  0  0
   15.3255   -0.7633   15.9991 C   0  0  0  0  0  0  0  0  0  0  0  0
   14.7125   -2.2516   15.5447 C   0  0  0  0  0  0  0  0  0  0  0  0
   15.8954   -3.4073   15.5890 C   0  0  0  0  0  0  0  0  0  0  0  0
   15.8425   -4.4845   16.4473 C   0  0  0  0  0  0  0  0  0  0  0  0
   14.6457   -4.9138   17.2537 C   0  0  0  0  0  0  0  0  0  0  0  0
   13.4392   -4.0492   17.0308 C   0  0  0  0  0  0  0  0  0  0  0  0
   13.8454   -2.6117   16.8584 C   0  0  0  0  0  0  0  0  0  0  0  0
   14.4989   -2.2865   18.1106 O   0  0  0  0  0  0  0  0  0  0  0  0
   16.9974   -5.4321   16.7569 C   0  0  0  0  0  0  0  0  0  0  0  0
   18.3041   -4.8695   16.4457 N   0  0  0  0  0  0  0  0  0  0  0  0
   18.2613   -4.4484   15.0477 C   0  0  0  0  0  0  0  0  0  0  0  0
   17.2492   -3.2741   14.8238 C   0  0  0  0  0  0  0  0  0  0  0  0
   17.0053   -3.2799   13.4777 F   0  0  0  0  0  0  0  0  0  0  0  0
   17.9675   -2.0606   15.1962 N   0  0  0  0  0  0  0  0  0  0  0  0
   18.9019   -1.7072   14.2496 F   0  0  0  0  0  0  0  0  0  0  0  0
   11.3264   -2.4125   15.8099 H   0  0  0  0  0  0  0  0  0  0  0  0
   10.6066   -2.1481   14.2329 H   0  0  0  0  0  0  0  0  0  0  0  0
   11.3382   -5.5290   13.8783 H   0  0  0  0  0  0  0  0  0  0  0  0
    9.7030   -8.1986   15.2085 H   0  0  0  0  0  0  0  0  0  0  0  0
    8.3535   -3.7460   14.9674 H   0  0  0  0  0  0  0  0  0  0  0  0
   15.8374   -1.6389   13.9367 H   0  0  0  0  0  0  0  0  0  0  0  0
   14.8406   -2.3027   12.7178 H   0  0  0  0  0  0  0  0  0  0  0  0
   13.7530    0.1092   12.6695 H   0  0  0  0  0  0  0  0  0  0  0  0
   15.3261   -0.2057   11.9234 H   0  0  0  0  0  0  0  0  0  0  0  0
   16.5550    0.6057   13.8086 H   0  0  0  0  0  0  0  0  0  0  0  0
   15.2755    1.7794   13.5141 H   0  0  0  0  0  0  0  0  0  0  0  0
   13.8547    0.6048   15.2023 H   0  0  0  0  0  0  0  0  0  0  0  0
   15.3495    1.3608   15.8230 H   0  0  0  0  0  0  0  0  0  0  0  0
   15.0206   -0.5304   17.0194 H   0  0  0  0  0  0  0  0  0  0  0  0
   16.4051   -0.7894   16.0962 H   0  0  0  0  0  0  0  0  0  0  0  0
   14.9056   -4.8938   18.3205 H   0  0  0  0  0  0  0  0  0  0  0  0
   14.3935   -5.9530   17.0165 H   0  0  0  0  0  0  0  0  0  0  0  0
   12.8966   -4.3835   16.1693 H   0  0  0  0  0  0  0  0  0  0  0  0
   12.7687   -4.1606   17.8893 H   0  0  0  0  0  0  0  0  0  0  0  0
   12.9421   -2.0140   16.8138 H   0  0  0  0  0  0  0  0  0  0  0  0
   15.4196   -2.6028   18.0804 H   0  0  0  0  0  0  0  0  0  0  0  0
   16.8414   -6.3797   16.2252 H   0  0  0  0  0  0  0  0  0  0  0  0
   17.0064   -5.6655   17.8281 H   0  0  0  0  0  0  0  0  0  0  0  0
   19.0037   -5.6071   16.5493 H   0  0  0  0  0  0  0  0  0  0  0  0
   19.2684   -4.1483   14.7297 H   0  0  0  0  0  0  0  0  0  0  0  0
   18.0188   -5.3025   14.4071 H   0  0  0  0  0  0  0  0  0  0  0  0
   18.4288   -2.2584   16.0873 H   0  0  0  0  0  0  0  0  0  0  0  0
  1  2  2  0
  2  3  1  0
  3  4  1  0
  4  5  2  0
  5  6  1  0
  6  7  2  0
  7  8  1  0
  2  9  1  0
  9 10  1  0
 10 11  1  0
 11 12  1  0
 12 13  1  0
 13 14  1  0
 14 15  1  0
 15 16  1  0
 16 17  2  0
 17 18  1  0
 18 19  1  0
 19 20  1  0
 20 21  1  0
 17 22  1  0
 22 23  1  0
 23 24  1  0
 24 25  1  0
 25 26  1  0
 25 27  1  0
 27 28  1  0
  8  4  1  0
 15  9  1  0
 25 16  1  0
 20 15  1  0
  3 29  1  0
  3 30  1  0
  5 31  1  0
  6 32  1  0
  8 33  1  0
 10 34  1  0
 10 35  1  0
 11 36  1  0
 11 37  1  0
 12 38  1  0
 12 39  1  0
 13 40  1  0
 13 41  1  0
 14 42  1  0
 14 43  1  0
 18 44  1  0
 18 45  1  0
 19 46  1  0
 19 47  1  0
 20 48  1  0
 21 49  1  0
 22 50  1  0
 22 51  1  0
 23 52  1  0
 24 53  1  0
 24 54  1  0
 27 55  1  0
M  END
>  <Energy>  (516) 
468.10327971939648

>  <compound_id>  (516) 
4160

>  <target_id>  (516) 
1

>  <reference_id>  (516) 
146

>  <inspiration_ids>  (516) 
[146, 10]

>  <energy_score>  (516) 
259.4673453022799

>  <distance_score>  (516) 
3.00775539268794

>  <path>  (516) 
/opt/xchem-fragalysis-2/maxwin/BulkDock/SCRATCH/505735/C4160-P146/C4160-P146.minimised.mol

>  <scratch_subdir>  (516) 
/opt/xchem-fragalysis-2/maxwin/BulkDock/SCRATCH/505735/C4160-P146

>  <fragmenstein_runtime>  (516) 
8.551630020141602

>  <fragmenstein_outcome>  (516) 
too moved

>  <fragmenstein_mode>  (516) 
expansion

>  <fragmenstein_error>  (516) 


$$$$
C4160-P10
     RDKit          3D

 55 58  0  0  0  0  0  0  0  0999 V2000
   12.9016   -3.3241   12.6280 O   0  0  0  0  0  0  0  0  0  0  0  0
   12.3499   -2.8019   13.5472 C   0  0  0  0  0  0  0  0  0  0  0  0
   11.2306   -3.7110   14.2147 C   0  0  0  0  0  0  0  0  0  0  0  0
   10.6350   -5.1431   13.3759 C   0  0  0  0  0  0  0  0  0  0  0  0
   11.1917   -6.4329   11.9973 C   0  0  0  0  0  0  0  0  0  0  0  0
    9.3485   -7.5704   11.4782 C   0  0  0  0  0  0  0  0  0  0  0  0
    8.1037   -6.9949   12.6169 N   0  0  0  0  0  0  0  0  0  0  0  0
    8.7208   -5.5943   13.8497 N   0  0  0  0  0  0  0  0  0  0  0  0
   12.4677   -1.4825   14.0574 N   0  0  0  0  0  0  0  0  0  0  0  0
   13.2159   -0.3182   13.5476 C   0  0  0  0  0  0  0  0  0  0  0  0
   12.2858    0.8987   13.4922 C   0  0  0  0  0  0  0  0  0  0  0  0
   12.3406    1.7289   14.7621 C   0  0  0  0  0  0  0  0  0  0  0  0
   12.5546    0.8804   16.0049 C   0  0  0  0  0  0  0  0  0  0  0  0
   13.8696    0.1037   15.9307 C   0  0  0  0  0  0  0  0  0  0  0  0
   13.7075   -1.4122   15.2969 C   0  0  0  0  0  0  0  0  0  0  0  0
   15.1616   -2.0917   14.9710 C   0  0  0  0  0  0  0  0  0  0  0  0
   15.6756   -3.1663   15.6593 C   0  0  0  0  0  0  0  0  0  0  0  0
   14.9552   -3.9659   16.7023 C   0  0  0  0  0  0  0  0  0  0  0  0
   13.4766   -3.7081   16.6985 C   0  0  0  0  0  0  0  0  0  0  0  0
   13.1594   -2.2269   16.5703 C   0  0  0  0  0  0  0  0  0  0  0  0
   13.7042   -1.6822   17.7888 O   0  0  0  0  0  0  0  0  0  0  0  0
   17.0921   -3.7264   15.5147 C   0  0  0  0  0  0  0  0  0  0  0  0
   18.0453   -2.8496   14.8505 N   0  0  0  0  0  0  0  0  0  0  0  0
   17.3943   -2.2985   13.6573 C   0  0  0  0  0  0  0  0  0  0  0  0
   16.1885   -1.4012   14.0455 C   0  0  0  0  0  0  0  0  0  0  0  0
   15.6607   -0.9894   12.8632 F   0  0  0  0  0  0  0  0  0  0  0  0
   16.7397   -0.2521   14.7847 N   0  0  0  0  0  0  0  0  0  0  0  0
   17.4018    0.6152   13.9446 F   0  0  0  0  0  0  0  0  0  0  0  0
   11.4109   -4.0075   15.2384 H   0  0  0  0  0  0  0  0  0  0  0  0
   10.3551   -3.0625   14.3186 H   0  0  0  0  0  0  0  0  0  0  0  0
   11.8825   -5.9933   11.2900 H   0  0  0  0  0  0  0  0  0  0  0  0
    9.1094   -8.0083   10.5282 H   0  0  0  0  0  0  0  0  0  0  0  0
    8.5700   -5.7262   14.8539 H   0  0  0  0  0  0  0  0  0  0  0  0
   14.2281   -0.0145   13.7466 H   0  0  0  0  0  0  0  0  0  0  0  0
   13.3387   -0.5990   12.4905 H   0  0  0  0  0  0  0  0  0  0  0  0
   11.2521    0.5782   13.3090 H   0  0  0  0  0  0  0  0  0  0  0  0
   12.5625    1.5373   12.6442 H   0  0  0  0  0  0  0  0  0  0  0  0
   11.4184    2.3134   14.8597 H   0  0  0  0  0  0  0  0  0  0  0  0
   13.1574    2.4574   14.6796 H   0  0  0  0  0  0  0  0  0  0  0  0
   11.7039    0.2067   16.1324 H   0  0  0  0  0  0  0  0  0  0  0  0
   12.5918    1.5571   16.8656 H   0  0  0  0  0  0  0  0  0  0  0  0
   14.3401    0.1004   16.9168 H   0  0  0  0  0  0  0  0  0  0  0  0
   14.5948    0.7238   15.3946 H   0  0  0  0  0  0  0  0  0  0  0  0
   15.3827   -3.7509   17.6896 H   0  0  0  0  0  0  0  0  0  0  0  0
   15.1226   -5.0325   16.5262 H   0  0  0  0  0  0  0  0  0  0  0  0
   13.0644   -4.3077   15.9068 H   0  0  0  0  0  0  0  0  0  0  0  0
   13.0537   -4.1024   17.6311 H   0  0  0  0  0  0  0  0  0  0  0  0
   12.0768   -2.0884   16.6184 H   0  0  0  0  0  0  0  0  0  0  0  0
   14.6755   -1.7488   17.7661 H   0  0  0  0  0  0  0  0  0  0  0  0
   17.0377   -4.6854   14.9850 H   0  0  0  0  0  0  0  0  0  0  0  0
   17.5017   -3.9375   16.5098 H   0  0  0  0  0  0  0  0  0  0  0  0
   18.8523   -3.4029   14.5604 H   0  0  0  0  0  0  0  0  0  0  0  0
   18.1272   -1.7063   13.0944 H   0  0  0  0  0  0  0  0  0  0  0  0
   17.0777   -3.0872   12.9688 H   0  0  0  0  0  0  0  0  0  0  0  0
   17.4123   -0.6649   15.4381 H   0  0  0  0  0  0  0  0  0  0  0  0
  1  2  2  0
  2  3  1  0
  3  4  1  0
  4  5  2  0
  5  6  1  0
  6  7  2  0
  7  8  1  0
  2  9  1  0
  9 10  1  0
 10 11  1  0
 11 12  1  0
 12 13  1  0
 13 14  1  0
 14 15  1  0
 15 16  1  0
 16 17  2  0
 17 18  1  0
 18 19  1  0
 19 20  1  0
 20 21  1  0
 17 22  1  0
 22 23  1  0
 23 24  1  0
 24 25  1  0
 25 26  1  0
 25 27  1  0
 27 28  1  0
  8  4  1  0
 15  9  1  0
 25 16  1  0
 20 15  1  0
  3 29  1  0
  3 30  1  0
  5 31  1  0
  6 32  1  0
  8 33  1  0
 10 34  1  0
 10 35  1  0
 11 36  1  0
 11 37  1  0
 12 38  1  0
 12 39  1  0
 13 40  1  0
 13 41  1  0
 14 42  1  0
 14 43  1  0
 18 44  1  0
 18 45  1  0
 19 46  1  0
 19 47  1  0
 20 48  1  0
 21 49  1  0
 22 50  1  0
 22 51  1  0
 23 52  1  0
 24 53  1  0
 24 54  1  0
 27 55  1  0
M  END
>  <Energy>  (517) 
879.38025458140578

>  <compound_id>  (517) 
4160

>  <target_id>  (517) 
1

>  <reference_id>  (517) 
10

>  <inspiration_ids>  (517) 
[146, 10]

>  <energy_score>  (517) 
670.7443201642845

>  <distance_score>  (517) 
3.0571820193389203

>  <path>  (517) 
/opt/xchem-fragalysis-2/maxwin/BulkDock/SCRATCH/505735/C4160-P10/C4160-P10.minimised.mol

>  <scratch_subdir>  (517) 
/opt/xchem-fragalysis-2/maxwin/BulkDock/SCRATCH/505735/C4160-P10

>  <fragmenstein_runtime>  (517) 
10.302398920059204

>  <fragmenstein_outcome>  (517) 
too moved

>  <fragmenstein_mode>  (517) 
expansion

>  <fragmenstein_error>  (517) 


$$$$
C4163-P146
     RDKit          3D

 48 51  0  0  0  0  0  0  0  0999 V2000
   17.8044   -4.4480   18.4643 C   0  0  0  0  0  0  0  0  0  0  0  0
   17.0444   -3.1286   18.7211 C   0  0  0  0  0  0  0  0  0  0  0  0
   17.6821   -2.4444   19.9522 C   0  0  0  0  0  0  0  0  0  0  0  0
   15.5881   -3.4124   19.0735 C   0  0  0  0  0  0  0  0  0  0  0  0
   14.9598   -2.7302   19.8879 O   0  0  0  0  0  0  0  0  0  0  0  0
   14.8490   -4.4091   18.2361 C   0  0  0  0  0  0  0  0  0  0  0  0
   14.2379   -3.6586   17.0943 C   0  0  0  0  0  0  0  0  0  0  0  0
   12.8618   -3.7877   16.9210 C   0  0  0  0  0  0  0  0  0  0  0  0
   12.2349   -3.0842   15.9216 C   0  0  0  0  0  0  0  0  0  0  0  0
   10.9319   -3.2621   15.7065 F   0  0  0  0  0  0  0  0  0  0  0  0
   12.9300   -2.2094   15.1071 C   0  0  0  0  0  0  0  0  0  0  0  0
   14.3314   -2.1086   15.2218 C   0  0  0  0  0  0  0  0  0  0  0  0
   15.0059   -2.8537   16.2176 C   0  0  0  0  0  0  0  0  0  0  0  0
   16.4140   -2.8349   16.3115 N   0  0  0  0  0  0  0  0  0  0  0  0
   17.0266   -2.1656   17.4860 C   0  0  0  0  0  0  0  0  0  0  0  0
   18.4641   -1.6144   17.1755 C   0  0  0  0  0  0  0  0  0  0  0  0
   18.8462   -1.4388   15.7407 C   0  0  0  0  0  0  0  0  0  0  0  0
   19.4084   -2.3257   14.8442 C   0  0  0  0  0  0  0  0  0  0  0  0
   19.5723   -1.5893   13.6599 C   0  0  0  0  0  0  0  0  0  0  0  0
   19.1431   -0.3326   13.7870 N   0  0  0  0  0  0  0  0  0  0  0  0
   18.7393   -0.2530   15.0656 N   0  0  0  0  0  0  0  0  0  0  0  0
   15.0487   -1.1776   14.2668 C   0  0  0  0  0  0  0  0  0  0  0  0
   14.1811   -0.7582   13.0730 C   0  0  0  0  0  0  0  0  0  0  0  0
   12.8450   -0.3406   13.4908 N   0  0  0  0  0  0  0  0  0  0  0  0
   12.1376   -1.4847   14.0580 C   0  0  0  0  0  0  0  0  0  0  0  0
   17.5659   -4.8915   17.4926 H   0  0  0  0  0  0  0  0  0  0  0  0
   18.8892   -4.2981   18.4813 H   0  0  0  0  0  0  0  0  0  0  0  0
   17.5702   -5.1917   19.2353 H   0  0  0  0  0  0  0  0  0  0  0  0
   17.5324   -3.0463   20.8567 H   0  0  0  0  0  0  0  0  0  0  0  0
   18.7609   -2.3008   19.8344 H   0  0  0  0  0  0  0  0  0  0  0  0
   17.2356   -1.4604   20.1375 H   0  0  0  0  0  0  0  0  0  0  0  0
   14.0880   -4.8650   18.8807 H   0  0  0  0  0  0  0  0  0  0  0  0
   15.4687   -5.2316   17.8771 H   0  0  0  0  0  0  0  0  0  0  0  0
   12.2735   -4.4437   17.5493 H   0  0  0  0  0  0  0  0  0  0  0  0
   16.8123   -2.4777   15.4471 H   0  0  0  0  0  0  0  0  0  0  0  0
   16.4101   -1.2850   17.7224 H   0  0  0  0  0  0  0  0  0  0  0  0
   19.2239   -2.2769   17.6059 H   0  0  0  0  0  0  0  0  0  0  0  0
   18.5885   -0.6610   17.7065 H   0  0  0  0  0  0  0  0  0  0  0  0
   19.6679   -3.3604   15.0230 H   0  0  0  0  0  0  0  0  0  0  0  0
   19.9812   -1.9144   12.7112 H   0  0  0  0  0  0  0  0  0  0  0  0
   18.3964    0.6410   15.4044 H   0  0  0  0  0  0  0  0  0  0  0  0
   15.9422   -1.6600   13.8575 H   0  0  0  0  0  0  0  0  0  0  0  0
   15.3608   -0.2878   14.8272 H   0  0  0  0  0  0  0  0  0  0  0  0
   14.6696    0.0661   12.5417 H   0  0  0  0  0  0  0  0  0  0  0  0
   14.1034   -1.5858   12.3600 H   0  0  0  0  0  0  0  0  0  0  0  0
   12.9255    0.3829   14.2069 H   0  0  0  0  0  0  0  0  0  0  0  0
   11.1969   -1.1159   14.4836 H   0  0  0  0  0  0  0  0  0  0  0  0
   11.8822   -2.2065   13.2772 H   0  0  0  0  0  0  0  0  0  0  0  0
  1  2  1  0
  2  3  1  0
  2  4  1  0
  4  5  2  0
  4  6  1  0
  6  7  1  0
  7  8  2  0
  8  9  1  0
  9 10  1  0
  9 11  2  0
 11 12  1  0
 12 13  2  0
 13 14  1  0
 14 15  1  0
 15 16  1  0
 16 17  1  0
 17 18  2  0
 18 19  1  0
 19 20  2  0
 20 21  1  0
 12 22  1  0
 22 23  1  0
 23 24  1  0
 24 25  1  0
 15  2  1  0
 21 17  1  0
 13  7  1  0
 25 11  1  0
  1 26  1  0
  1 27  1  0
  1 28  1  0
  3 29  1  0
  3 30  1  0
  3 31  1  0
  6 32  1  0
  6 33  1  0
  8 34  1  0
 14 35  1  0
 15 36  1  0
 16 37  1  0
 16 38  1  0
 18 39  1  0
 19 40  1  0
 21 41  1  0
 22 42  1  0
 22 43  1  0
 23 44  1  0
 23 45  1  0
 24 46  1  0
 25 47  1  0
 25 48  1  0
M  END
>  <Energy>  (518) 
79.528601754378684

>  <compound_id>  (518) 
4163

>  <target_id>  (518) 
1

>  <reference_id>  (518) 
146

>  <inspiration_ids>  (518) 
[146, 27]

>  <energy_score>  (518) 
-48.80377827388068

>  <distance_score>  (518) 
1.3735193310672167

>  <path>  (518) 
/opt/xchem-fragalysis-2/maxwin/BulkDock/SCRATCH/505735/C4163-P146/C4163-P146.minimised.mol

>  <scratch_subdir>  (518) 
/opt/xchem-fragalysis-2/maxwin/BulkDock/SCRATCH/505735/C4163-P146

>  <fragmenstein_runtime>  (518) 
2.5855648517608643

>  <fragmenstein_outcome>  (518) 
too moved

>  <fragmenstein_mode>  (518) 
expansion

>  <fragmenstein_error>  (518) 


$$$$
C4163-P27
     RDKit          3D

 48 51  0  0  0  0  0  0  0  0999 V2000
   17.7780   -4.3883   18.6022 C   0  0  0  0  0  0  0  0  0  0  0  0
   17.0732   -3.0194   18.7499 C   0  0  0  0  0  0  0  0  0  0  0  0
   17.7450   -2.2689   19.9225 C   0  0  0  0  0  0  0  0  0  0  0  0
   15.6057   -3.2117   19.1200 C   0  0  0  0  0  0  0  0  0  0  0  0
   15.0152   -2.4524   19.8904 O   0  0  0  0  0  0  0  0  0  0  0  0
   14.8263   -4.2335   18.3545 C   0  0  0  0  0  0  0  0  0  0  0  0
   14.2528   -3.5589   17.1475 C   0  0  0  0  0  0  0  0  0  0  0  0
   12.8706   -3.6204   16.9793 C   0  0  0  0  0  0  0  0  0  0  0  0
   12.2682   -2.9248   15.9554 C   0  0  0  0  0  0  0  0  0  0  0  0
   10.9415   -2.9876   15.8097 F   0  0  0  0  0  0  0  0  0  0  0  0
   13.0146   -2.1609   15.0711 C   0  0  0  0  0  0  0  0  0  0  0  0
   14.4256   -2.1509   15.1741 C   0  0  0  0  0  0  0  0  0  0  0  0
   15.0606   -2.8660   16.2177 C   0  0  0  0  0  0  0  0  0  0  0  0
   16.4685   -2.9107   16.3271 N   0  0  0  0  0  0  0  0  0  0  0  0
   17.0940   -2.1583   17.4411 C   0  0  0  0  0  0  0  0  0  0  0  0
   18.5538   -1.7048   17.1025 C   0  0  0  0  0  0  0  0  0  0  0  0
   18.8841   -1.4491   15.6682 C   0  0  0  0  0  0  0  0  0  0  0  0
   19.3958   -2.2913   14.7015 C   0  0  0  0  0  0  0  0  0  0  0  0
   19.5492   -1.4848   13.5632 C   0  0  0  0  0  0  0  0  0  0  0  0
   19.1657   -0.2260   13.7828 N   0  0  0  0  0  0  0  0  0  0  0  0
   18.7839   -0.2223   15.0713 N   0  0  0  0  0  0  0  0  0  0  0  0
   15.2060   -1.3649   14.1413 C   0  0  0  0  0  0  0  0  0  0  0  0
   14.3676   -0.9664   12.9212 C   0  0  0  0  0  0  0  0  0  0  0  0
   13.0715   -0.4156   13.3156 N   0  0  0  0  0  0  0  0  0  0  0  0
   12.2803   -1.4750   13.9515 C   0  0  0  0  0  0  0  0  0  0  0  0
   18.8681   -4.2856   18.6305 H   0  0  0  0  0  0  0  0  0  0  0  0
   17.4992   -5.0621   19.4212 H   0  0  0  0  0  0  0  0  0  0  0  0
   17.5361   -4.8920   17.6612 H   0  0  0  0  0  0  0  0  0  0  0  0
   17.5762   -2.7921   20.8715 H   0  0  0  0  0  0  0  0  0  0  0  0
   18.8282   -2.1811   19.7888 H   0  0  0  0  0  0  0  0  0  0  0  0
   17.3409   -1.2557   20.0318 H   0  0  0  0  0  0  0  0  0  0  0  0
   14.0482   -4.6253   19.0211 H   0  0  0  0  0  0  0  0  0  0  0  0
   15.4372   -5.0872   18.0683 H   0  0  0  0  0  0  0  0  0  0  0  0
   12.2569   -4.2038   17.6523 H   0  0  0  0  0  0  0  0  0  0  0  0
   16.8908   -2.6728   15.4325 H   0  0  0  0  0  0  0  0  0  0  0  0
   16.5124   -1.2369   17.5938 H   0  0  0  0  0  0  0  0  0  0  0  0
   19.2681   -2.4642   17.4418 H   0  0  0  0  0  0  0  0  0  0  0  0
   18.7858   -0.8073   17.6912 H   0  0  0  0  0  0  0  0  0  0  0  0
   19.6305   -3.3416   14.8075 H   0  0  0  0  0  0  0  0  0  0  0  0
   19.9223   -1.7590   12.5846 H   0  0  0  0  0  0  0  0  0  0  0  0
   18.4694    0.6544   15.4754 H   0  0  0  0  0  0  0  0  0  0  0  0
   16.0505   -1.9541   13.7690 H   0  0  0  0  0  0  0  0  0  0  0  0
   15.5996   -0.4634   14.6267 H   0  0  0  0  0  0  0  0  0  0  0  0
   14.9146   -0.2171   12.3380 H   0  0  0  0  0  0  0  0  0  0  0  0
   14.2230   -1.8280   12.2561 H   0  0  0  0  0  0  0  0  0  0  0  0
   13.2128    0.3261   13.9991 H   0  0  0  0  0  0  0  0  0  0  0  0
   11.3606   -1.0174   14.3331 H   0  0  0  0  0  0  0  0  0  0  0  0
   11.9978   -2.2279   13.2078 H   0  0  0  0  0  0  0  0  0  0  0  0
  1  2  1  0
  2  3  1  0
  2  4  1  0
  4  5  2  0
  4  6  1  0
  6  7  1  0
  7  8  2  0
  8  9  1  0
  9 10  1  0
  9 11  2  0
 11 12  1  0
 12 13  2  0
 13 14  1  0
 14 15  1  0
 15 16  1  0
 16 17  1  0
 17 18  2  0
 18 19  1  0
 19 20  2  0
 20 21  1  0
 12 22  1  0
 22 23  1  0
 23 24  1  0
 24 25  1  0
 15  2  1  0
 21 17  1  0
 13  7  1  0
 25 11  1  0
  1 26  1  0
  1 27  1  0
  1 28  1  0
  3 29  1  0
  3 30  1  0
  3 31  1  0
  6 32  1  0
  6 33  1  0
  8 34  1  0
 14 35  1  0
 15 36  1  0
 16 37  1  0
 16 38  1  0
 18 39  1  0
 19 40  1  0
 21 41  1  0
 22 42  1  0
 22 43  1  0
 23 44  1  0
 23 45  1  0
 24 46  1  0
 25 47  1  0
 25 48  1  0
M  END
>  <Energy>  (519) 
77.121268784315134

>  <compound_id>  (519) 
4163

>  <target_id>  (519) 
1

>  <reference_id>  (519) 
27

>  <inspiration_ids>  (519) 
[146, 27]

>  <energy_score>  (519) 
-51.2111112439446

>  <distance_score>  (519) 
1.3333408786226328

>  <path>  (519) 
/opt/xchem-fragalysis-2/maxwin/BulkDock/SCRATCH/505735/C4163-P27/C4163-P27.minimised.mol

>  <scratch_subdir>  (519) 
/opt/xchem-fragalysis-2/maxwin/BulkDock/SCRATCH/505735/C4163-P27

>  <fragmenstein_runtime>  (519) 
2.323202133178711

>  <fragmenstein_outcome>  (519) 
too moved

>  <fragmenstein_mode>  (519) 
expansion

>  <fragmenstein_error>  (519) 


$$$$
C4165-P146
     RDKit          3D

 48 50  0  0  0  0  0  0  0  0999 V2000
   18.1879   -2.9476   11.6873 C   0  0  0  0  0  0  0  0  0  0  0  0
   17.7402   -1.5444   11.3470 C   0  0  0  0  0  0  0  0  0  0  0  0
   18.2089   -0.9336   10.4708 O   0  0  0  0  0  0  0  0  0  0  0  0
   16.5921   -1.1794   12.3256 N   0  0  0  0  0  0  0  0  0  0  0  0
   15.7323   -0.0368   12.3630 C   0  0  0  0  0  0  0  0  0  0  0  0
   15.0998    0.2992   13.7049 C   0  0  0  0  0  0  0  0  0  0  0  0
   13.9834   -0.6117   14.2792 C   0  0  0  0  0  0  0  0  0  0  0  0
   13.0883   -1.0377   13.1097 C   0  0  0  0  0  0  0  0  0  0  0  0
   11.7797   -1.4815   13.5544 N   0  0  0  0  0  0  0  0  0  0  0  0
   11.8916   -2.6762   14.3657 C   0  0  0  0  0  0  0  0  0  0  0  0
   12.9799   -2.6162   15.4176 C   0  0  0  0  0  0  0  0  0  0  0  0
   12.8455   -3.5097   16.4960 C   0  0  0  0  0  0  0  0  0  0  0  0
   13.8361   -3.6073   17.4522 C   0  0  0  0  0  0  0  0  0  0  0  0
   14.9836   -2.8350   17.3160 C   0  0  0  0  0  0  0  0  0  0  0  0
   15.1538   -1.9330   16.2464 C   0  0  0  0  0  0  0  0  0  0  0  0
   16.3671   -1.2541   16.1713 N   0  0  0  0  0  0  0  0  0  0  0  0
   17.4923   -1.0644   17.2420 C   0  0  0  0  0  0  0  0  0  0  0  0
   17.5996   -1.5153   18.3180 O   0  0  0  0  0  0  0  0  0  0  0  0
   18.5247   -0.1199   16.6292 C   0  0  0  0  0  0  0  0  0  0  0  0
   19.2811   -0.7958   15.5407 C   0  0  0  0  0  0  0  0  0  0  0  0
   19.8200   -2.0618   15.4343 C   0  0  0  0  0  0  0  0  0  0  0  0
   20.4562   -2.0776   14.1829 C   0  0  0  0  0  0  0  0  0  0  0  0
   20.3102   -0.9243   13.5316 N   0  0  0  0  0  0  0  0  0  0  0  0
   19.6218   -0.1526   14.3814 N   0  0  0  0  0  0  0  0  0  0  0  0
   14.1327   -1.7711   15.2861 C   0  0  0  0  0  0  0  0  0  0  0  0
   17.5786   -3.6604   11.1293 H   0  0  0  0  0  0  0  0  0  0  0  0
   19.2355   -3.0702   11.3971 H   0  0  0  0  0  0  0  0  0  0  0  0
   18.1081   -3.1495   12.7576 H   0  0  0  0  0  0  0  0  0  0  0  0
   16.3822   -1.9774   12.9146 H   0  0  0  0  0  0  0  0  0  0  0  0
   16.3472    0.8133   12.0423 H   0  0  0  0  0  0  0  0  0  0  0  0
   14.9900   -0.1608   11.5700 H   0  0  0  0  0  0  0  0  0  0  0  0
   14.6051    1.2682   13.5251 H   0  0  0  0  0  0  0  0  0  0  0  0
   15.8578    0.5617   14.4411 H   0  0  0  0  0  0  0  0  0  0  0  0
   13.3905    0.1010   14.8776 H   0  0  0  0  0  0  0  0  0  0  0  0
   12.9185   -0.1834   12.4442 H   0  0  0  0  0  0  0  0  0  0  0  0
   13.5727   -1.8284   12.5238 H   0  0  0  0  0  0  0  0  0  0  0  0
   11.3188   -0.7470   14.0898 H   0  0  0  0  0  0  0  0  0  0  0  0
   10.9205   -2.8532   14.8429 H   0  0  0  0  0  0  0  0  0  0  0  0
   12.0830   -3.5328   13.7099 H   0  0  0  0  0  0  0  0  0  0  0  0
   11.9684   -4.1490   16.5836 H   0  0  0  0  0  0  0  0  0  0  0  0
   13.7330   -4.2986   18.2853 H   0  0  0  0  0  0  0  0  0  0  0  0
   15.7614   -2.9692   18.0643 H   0  0  0  0  0  0  0  0  0  0  0  0
   16.6293   -0.7862   15.3215 H   0  0  0  0  0  0  0  0  0  0  0  0
   18.0120    0.7802   16.2707 H   0  0  0  0  0  0  0  0  0  0  0  0
   19.2158    0.1954   17.4194 H   0  0  0  0  0  0  0  0  0  0  0  0
   19.7804   -2.8562   16.1680 H   0  0  0  0  0  0  0  0  0  0  0  0
   21.0139   -2.8800   13.7160 H   0  0  0  0  0  0  0  0  0  0  0  0
   19.4267    0.8034   14.0989 H   0  0  0  0  0  0  0  0  0  0  0  0
  1  2  1  0
  2  3  2  0
  2  4  1  0
  4  5  1  0
  5  6  1  0
  6  7  1  0
  7  8  1  0
  8  9  1  0
  9 10  1  0
 10 11  1  0
 11 12  2  0
 12 13  1  0
 13 14  2  0
 14 15  1  0
 15 16  1  0
 16 17  1  0
 17 18  2  0
 17 19  1  0
 19 20  1  0
 20 21  2  0
 21 22  1  0
 22 23  2  0
 23 24  1  0
 15 25  2  0
 25  7  1  0
 25 11  1  0
 24 20  1  0
  1 26  1  0
  1 27  1  0
  1 28  1  0
  4 29  1  0
  5 30  1  0
  5 31  1  0
  6 32  1  0
  6 33  1  0
  7 34  1  0
  8 35  1  0
  8 36  1  0
  9 37  1  0
 10 38  1  0
 10 39  1  0
 12 40  1  0
 13 41  1  0
 14 42  1  0
 16 43  1  0
 19 44  1  0
 19 45  1  0
 21 46  1  0
 22 47  1  0
 24 48  1  0
M  END
>  <Energy>  (520) 
74.765944091497843

>  <compound_id>  (520) 
4165

>  <target_id>  (520) 
1

>  <reference_id>  (520) 
146

>  <inspiration_ids>  (520) 
[146, 31]

>  <energy_score>  (520) 
-10.90913043524256

>  <distance_score>  (520) 
1.1354404711565822

>  <path>  (520) 
/opt/xchem-fragalysis-2/maxwin/BulkDock/SCRATCH/505735/C4165-P146/C4165-P146.minimised.mol

>  <scratch_subdir>  (520) 
/opt/xchem-fragalysis-2/maxwin/BulkDock/SCRATCH/505735/C4165-P146

>  <fragmenstein_runtime>  (520) 
2.1971001625061035

>  <fragmenstein_outcome>  (520) 
too moved

>  <fragmenstein_mode>  (520) 
expansion

>  <fragmenstein_error>  (520) 


$$$$
C4165-P31
     RDKit          3D

 48 50  0  0  0  0  0  0  0  0999 V2000
   18.7283   -1.0766   10.1195 C   0  0  0  0  0  0  0  0  0  0  0  0
   17.8460   -0.6242   11.2626 C   0  0  0  0  0  0  0  0  0  0  0  0
   17.9002    0.4421   11.7390 O   0  0  0  0  0  0  0  0  0  0  0  0
   16.9120   -1.8252   11.5846 N   0  0  0  0  0  0  0  0  0  0  0  0
   15.9191   -1.9900   12.6225 C   0  0  0  0  0  0  0  0  0  0  0  0
   15.4279   -0.6554   13.1675 C   0  0  0  0  0  0  0  0  0  0  0  0
   14.2498   -0.7438   14.1646 C   0  0  0  0  0  0  0  0  0  0  0  0
   12.9807   -0.7455   13.2928 C   0  0  0  0  0  0  0  0  0  0  0  0
   11.7507   -0.9251   14.0519 N   0  0  0  0  0  0  0  0  0  0  0  0
   11.7720   -2.2789   14.5885 C   0  0  0  0  0  0  0  0  0  0  0  0
   12.9575   -2.4712   15.4918 C   0  0  0  0  0  0  0  0  0  0  0  0
   12.7686   -3.2932   16.6013 C   0  0  0  0  0  0  0  0  0  0  0  0
   13.7430   -3.3607   17.5710 C   0  0  0  0  0  0  0  0  0  0  0  0
   14.9877   -2.7901   17.3525 C   0  0  0  0  0  0  0  0  0  0  0  0
   15.2422   -2.0409   16.1987 C   0  0  0  0  0  0  0  0  0  0  0  0
   16.4805   -1.4103   16.0827 N   0  0  0  0  0  0  0  0  0  0  0  0
   17.7162   -1.4182   17.0394 C   0  0  0  0  0  0  0  0  0  0  0  0
   17.9066   -2.0169   18.0285 O   0  0  0  0  0  0  0  0  0  0  0  0
   18.7292   -0.4450   16.4377 C   0  0  0  0  0  0  0  0  0  0  0  0
   19.4322   -1.0833   15.2941 C   0  0  0  0  0  0  0  0  0  0  0  0
   20.0384   -2.3157   15.1694 C   0  0  0  0  0  0  0  0  0  0  0  0
   20.5488   -2.3361   13.8632 C   0  0  0  0  0  0  0  0  0  0  0  0
   20.2957   -1.2064   13.2036 N   0  0  0  0  0  0  0  0  0  0  0  0
   19.5945   -0.4673   14.0820 N   0  0  0  0  0  0  0  0  0  0  0  0
   14.2068   -1.8220   15.2598 C   0  0  0  0  0  0  0  0  0  0  0  0
   19.2760   -1.9810   10.3982 H   0  0  0  0  0  0  0  0  0  0  0  0
   19.4525   -0.2903    9.8873 H   0  0  0  0  0  0  0  0  0  0  0  0
   18.1168   -1.2663    9.2331 H   0  0  0  0  0  0  0  0  0  0  0  0
   17.1922   -2.6300   11.0339 H   0  0  0  0  0  0  0  0  0  0  0  0
   16.3857   -2.5884   13.4094 H   0  0  0  0  0  0  0  0  0  0  0  0
   15.1020   -2.5699   12.1846 H   0  0  0  0  0  0  0  0  0  0  0  0
   15.1461   -0.0056   12.3265 H   0  0  0  0  0  0  0  0  0  0  0  0
   16.2613   -0.1203   13.6314 H   0  0  0  0  0  0  0  0  0  0  0  0
   14.2314    0.2106   14.7121 H   0  0  0  0  0  0  0  0  0  0  0  0
   12.9127    0.2064   12.7521 H   0  0  0  0  0  0  0  0  0  0  0  0
   13.0751   -1.5400   12.5463 H   0  0  0  0  0  0  0  0  0  0  0  0
   10.9339   -0.8758   13.4319 H   0  0  0  0  0  0  0  0  0  0  0  0
   10.8427   -2.4216   15.1519 H   0  0  0  0  0  0  0  0  0  0  0  0
   11.7831   -3.0314   13.7909 H   0  0  0  0  0  0  0  0  0  0  0  0
   11.8360   -3.8271   16.7501 H   0  0  0  0  0  0  0  0  0  0  0  0
   13.5211   -3.8500   18.5130 H   0  0  0  0  0  0  0  0  0  0  0  0
   15.7351   -2.8893   18.1334 H   0  0  0  0  0  0  0  0  0  0  0  0
   16.6808   -0.8429   15.2807 H   0  0  0  0  0  0  0  0  0  0  0  0
   18.2195    0.4795   16.1433 H   0  0  0  0  0  0  0  0  0  0  0  0
   19.4514   -0.1759   17.2171 H   0  0  0  0  0  0  0  0  0  0  0  0
   20.1072   -3.0891   15.9229 H   0  0  0  0  0  0  0  0  0  0  0  0
   21.1022   -3.1235   13.3682 H   0  0  0  0  0  0  0  0  0  0  0  0
   19.2434    0.4339   13.7642 H   0  0  0  0  0  0  0  0  0  0  0  0
  1  2  1  0
  2  3  2  0
  2  4  1  0
  4  5  1  0
  5  6  1  0
  6  7  1  0
  7  8  1  0
  8  9  1  0
  9 10  1  0
 10 11  1  0
 11 12  2  0
 12 13  1  0
 13 14  2  0
 14 15  1  0
 15 16  1  0
 16 17  1  0
 17 18  2  0
 17 19  1  0
 19 20  1  0
 20 21  2  0
 21 22  1  0
 22 23  2  0
 23 24  1  0
 15 25  2  0
 25  7  1  0
 25 11  1  0
 24 20  1  0
  1 26  1  0
  1 27  1  0
  1 28  1  0
  4 29  1  0
  5 30  1  0
  5 31  1  0
  6 32  1  0
  6 33  1  0
  7 34  1  0
  8 35  1  0
  8 36  1  0
  9 37  1  0
 10 38  1  0
 10 39  1  0
 12 40  1  0
 13 41  1  0
 14 42  1  0
 16 43  1  0
 19 44  1  0
 19 45  1  0
 21 46  1  0
 22 47  1  0
 24 48  1  0
M  END
>  <Energy>  (521) 
60.330844376300853

>  <compound_id>  (521) 
4165

>  <target_id>  (521) 
1

>  <reference_id>  (521) 
31

>  <inspiration_ids>  (521) 
[146, 31]

>  <energy_score>  (521) 
-25.34423015044416

>  <distance_score>  (521) 
1.287493646915818

>  <path>  (521) 
/opt/xchem-fragalysis-2/maxwin/BulkDock/SCRATCH/505735/C4165-P31/C4165-P31.minimised.mol

>  <scratch_subdir>  (521) 
/opt/xchem-fragalysis-2/maxwin/BulkDock/SCRATCH/505735/C4165-P31

>  <fragmenstein_runtime>  (521) 
2.0368380546569824

>  <fragmenstein_outcome>  (521) 
too moved

>  <fragmenstein_mode>  (521) 
expansion

>  <fragmenstein_error>  (521) 


$$$$
C4168-P146
     RDKit          3D

 52 53  0  0  0  0  0  0  0  0999 V2000
   14.2875    1.6455   12.8158 C   0  0  0  0  0  0  0  0  0  0  0  0
   13.8852    0.1860   12.7210 C   0  0  0  0  0  0  0  0  0  0  0  0
   14.0656   -0.4416   14.0243 N   0  0  0  0  0  0  0  0  0  0  0  0
   13.7614   -1.8633   13.9582 C   0  0  0  0  0  0  0  0  0  0  0  0
   13.8382   -2.4851   15.3328 C   0  0  0  0  0  0  0  0  0  0  0  0
   12.7265   -3.1335   15.8488 C   0  0  0  0  0  0  0  0  0  0  0  0
   12.8159   -3.7196   17.0936 C   0  0  0  0  0  0  0  0  0  0  0  0
   13.9697   -3.5917   17.8768 C   0  0  0  0  0  0  0  0  0  0  0  0
   15.1691   -3.0083   17.3896 C   0  0  0  0  0  0  0  0  0  0  0  0
   16.5597   -2.6328   18.2106 N   0  0  0  0  0  0  0  0  0  0  0  0
   16.2513   -3.9752   18.9006 C   0  0  0  0  0  0  0  0  0  0  0  0
   15.7998   -3.7415   20.3640 C   0  0  0  0  0  0  0  0  0  0  0  0
   15.6228   -5.0531   21.1358 C   0  0  0  0  0  0  0  0  0  0  0  0
   14.8681   -5.9783   20.3895 O   0  0  0  0  0  0  0  0  0  0  0  0
   15.0101   -4.9051   22.4396 N   0  0  0  0  0  0  0  0  0  0  0  0
   13.6832   -4.3012   22.4094 C   0  0  0  0  0  0  0  0  0  0  0  0
   17.5960   -2.2724   17.2898 C   0  0  0  0  0  0  0  0  0  0  0  0
   18.4360   -2.9502   16.7505 O   0  0  0  0  0  0  0  0  0  0  0  0
   17.6097   -0.7421   17.1060 C   0  0  0  0  0  0  0  0  0  0  0  0
   18.1454   -0.3397   15.7660 C   0  0  0  0  0  0  0  0  0  0  0  0
   17.7582    0.6452   14.8848 C   0  0  0  0  0  0  0  0  0  0  0  0
   18.6397    0.5263   13.7955 C   0  0  0  0  0  0  0  0  0  0  0  0
   19.5261   -0.4554   13.9633 N   0  0  0  0  0  0  0  0  0  0  0  0
   19.2004   -0.9749   15.1585 N   0  0  0  0  0  0  0  0  0  0  0  0
   15.0413   -2.4625   16.0840 C   0  0  0  0  0  0  0  0  0  0  0  0
   13.6830    2.1799   13.5567 H   0  0  0  0  0  0  0  0  0  0  0  0
   14.1437    2.1387   11.8488 H   0  0  0  0  0  0  0  0  0  0  0  0
   15.3414    1.7520   13.0912 H   0  0  0  0  0  0  0  0  0  0  0  0
   14.5055   -0.3060   11.9638 H   0  0  0  0  0  0  0  0  0  0  0  0
   12.8382    0.1242   12.4061 H   0  0  0  0  0  0  0  0  0  0  0  0
   13.4650    0.0167   14.7103 H   0  0  0  0  0  0  0  0  0  0  0  0
   12.7601   -2.0175   13.5370 H   0  0  0  0  0  0  0  0  0  0  0  0
   14.4736   -2.3800   13.3032 H   0  0  0  0  0  0  0  0  0  0  0  0
   11.8068   -3.2185   15.2752 H   0  0  0  0  0  0  0  0  0  0  0  0
   11.9772   -4.2881   17.4730 H   0  0  0  0  0  0  0  0  0  0  0  0
   13.8547   -4.0193   18.8666 H   0  0  0  0  0  0  0  0  0  0  0  0
   15.8715   -4.8413   18.3311 H   0  0  0  0  0  0  0  0  0  0  0  0
   17.2828   -4.3513   19.0289 H   0  0  0  0  0  0  0  0  0  0  0  0
   14.8893   -3.1370   20.3716 H   0  0  0  0  0  0  0  0  0  0  0  0
   16.5486   -3.1247   20.8802 H   0  0  0  0  0  0  0  0  0  0  0  0
   16.6219   -5.4836   21.2771 H   0  0  0  0  0  0  0  0  0  0  0  0
   15.2302   -6.8607   20.5939 H   0  0  0  0  0  0  0  0  0  0  0  0
   14.9449   -5.8213   22.8737 H   0  0  0  0  0  0  0  0  0  0  0  0
   13.0081   -4.8042   21.7099 H   0  0  0  0  0  0  0  0  0  0  0  0
   13.7312   -3.2360   22.1704 H   0  0  0  0  0  0  0  0  0  0  0  0
   13.2354   -4.3757   23.4061 H   0  0  0  0  0  0  0  0  0  0  0  0
   16.6067   -0.3248   17.2485 H   0  0  0  0  0  0  0  0  0  0  0  0
   18.2518   -0.3259   17.8914 H   0  0  0  0  0  0  0  0  0  0  0  0
   16.9443    1.3464   15.0063 H   0  0  0  0  0  0  0  0  0  0  0  0
   18.6717    1.1142   12.8877 H   0  0  0  0  0  0  0  0  0  0  0  0
   19.6995   -1.7970   15.4935 H   0  0  0  0  0  0  0  0  0  0  0  0
   15.8727   -1.9686   15.5897 H   0  0  0  0  0  0  0  0  0  0  0  0
  1  2  1  0
  2  3  1  0
  3  4  1  0
  4  5  1  0
  5  6  2  0
  6  7  1  0
  7  8  2  0
  8  9  1  0
  9 10  1  0
 10 11  1  0
 11 12  1  0
 12 13  1  0
 13 14  1  0
 13 15  1  0
 15 16  1  0
 10 17  1  0
 17 18  2  0
 17 19  1  0
 19 20  1  0
 20 21  2  0
 21 22  1  0
 22 23  2  0
 23 24  1  0
  9 25  2  0
 25  5  1  0
 24 20  1  0
  1 26  1  0
  1 27  1  0
  1 28  1  0
  2 29  1  0
  2 30  1  0
  3 31  1  0
  4 32  1  0
  4 33  1  0
  6 34  1  0
  7 35  1  0
  8 36  1  0
 11 37  1  0
 11 38  1  0
 12 39  1  0
 12 40  1  0
 13 41  1  0
 14 42  1  0
 15 43  1  0
 16 44  1  0
 16 45  1  0
 16 46  1  0
 19 47  1  0
 19 48  1  0
 21 49  1  0
 22 50  1  0
 24 51  1  0
 25 52  1  0
M  END
>  <Energy>  (522) 
78.658701897206186

>  <compound_id>  (522) 
4168

>  <target_id>  (522) 
1

>  <reference_id>  (522) 
146

>  <inspiration_ids>  (522) 
[146, 60]

>  <energy_score>  (522) 
43.20690292614776

>  <distance_score>  (522) 
2.2308523195586947

>  <path>  (522) 
/opt/xchem-fragalysis-2/maxwin/BulkDock/SCRATCH/505735/C4168-P146/C4168-P146.minimised.mol

>  <scratch_subdir>  (522) 
/opt/xchem-fragalysis-2/maxwin/BulkDock/SCRATCH/505735/C4168-P146

>  <fragmenstein_runtime>  (522) 
4.647373199462891

>  <fragmenstein_outcome>  (522) 
too moved

>  <fragmenstein_mode>  (522) 
expansion

>  <fragmenstein_error>  (522) 


$$$$
C4168-P60
     RDKit          3D

 52 53  0  0  0  0  0  0  0  0999 V2000
   14.6326   -0.4871   12.4828 C   0  0  0  0  0  0  0  0  0  0  0  0
   14.1894   -1.6306   13.3798 C   0  0  0  0  0  0  0  0  0  0  0  0
   13.1655   -1.1604   14.3121 N   0  0  0  0  0  0  0  0  0  0  0  0
   12.9099   -2.1157   15.3900 C   0  0  0  0  0  0  0  0  0  0  0  0
   13.9343   -2.0343   16.5039 C   0  0  0  0  0  0  0  0  0  0  0  0
   13.9752   -0.8913   17.3143 C   0  0  0  0  0  0  0  0  0  0  0  0
   14.9178   -0.7668   18.3324 C   0  0  0  0  0  0  0  0  0  0  0  0
   15.8278   -1.7928   18.5694 C   0  0  0  0  0  0  0  0  0  0  0  0
   15.7759   -2.9796   17.8212 C   0  0  0  0  0  0  0  0  0  0  0  0
   16.9026   -3.9872   18.0418 N   0  0  0  0  0  0  0  0  0  0  0  0
   15.8228   -4.6259   19.0038 C   0  0  0  0  0  0  0  0  0  0  0  0
   16.0922   -4.3182   20.4913 C   0  0  0  0  0  0  0  0  0  0  0  0
   15.3659   -5.2656   21.4540 C   0  0  0  0  0  0  0  0  0  0  0  0
   15.9264   -6.5557   21.3573 O   0  0  0  0  0  0  0  0  0  0  0  0
   13.9459   -5.4222   21.2202 N   0  0  0  0  0  0  0  0  0  0  0  0
   13.2450   -4.1460   21.3289 C   0  0  0  0  0  0  0  0  0  0  0  0
   17.4211   -4.4407   16.7850 C   0  0  0  0  0  0  0  0  0  0  0  0
   17.1021   -5.3784   16.0988 O   0  0  0  0  0  0  0  0  0  0  0  0
   18.6235   -3.5601   16.4267 C   0  0  0  0  0  0  0  0  0  0  0  0
   18.3830   -2.7169   15.2270 C   0  0  0  0  0  0  0  0  0  0  0  0
   18.5859   -2.9553   13.8858 C   0  0  0  0  0  0  0  0  0  0  0  0
   18.2522   -1.7471   13.2515 C   0  0  0  0  0  0  0  0  0  0  0  0
   17.8594   -0.8098   14.1172 N   0  0  0  0  0  0  0  0  0  0  0  0
   17.9147   -1.4335   15.3062 N   0  0  0  0  0  0  0  0  0  0  0  0
   14.8639   -3.0617   16.7413 C   0  0  0  0  0  0  0  0  0  0  0  0
   13.7885   -0.0583   11.9334 H   0  0  0  0  0  0  0  0  0  0  0  0
   15.3627   -0.8443   11.7495 H   0  0  0  0  0  0  0  0  0  0  0  0
   15.1018    0.3141   13.0638 H   0  0  0  0  0  0  0  0  0  0  0  0
   15.0670   -2.0198   13.9048 H   0  0  0  0  0  0  0  0  0  0  0  0
   13.7786   -2.4313   12.7573 H   0  0  0  0  0  0  0  0  0  0  0  0
   13.4580   -0.2699   14.7078 H   0  0  0  0  0  0  0  0  0  0  0  0
   11.9311   -1.8787   15.8267 H   0  0  0  0  0  0  0  0  0  0  0  0
   12.8074   -3.1368   15.0123 H   0  0  0  0  0  0  0  0  0  0  0  0
   13.2775   -0.0753   17.1363 H   0  0  0  0  0  0  0  0  0  0  0  0
   14.9550    0.1405   18.9308 H   0  0  0  0  0  0  0  0  0  0  0  0
   16.5911   -1.6573   19.3322 H   0  0  0  0  0  0  0  0  0  0  0  0
   14.7586   -4.6258   18.7109 H   0  0  0  0  0  0  0  0  0  0  0  0
   16.0698   -5.6914   18.8742 H   0  0  0  0  0  0  0  0  0  0  0  0
   15.8189   -3.2878   20.7335 H   0  0  0  0  0  0  0  0  0  0  0  0
   17.1727   -4.4045   20.6664 H   0  0  0  0  0  0  0  0  0  0  0  0
   15.5462   -4.9227   22.4797 H   0  0  0  0  0  0  0  0  0  0  0  0
   15.3952   -7.0079   20.6808 H   0  0  0  0  0  0  0  0  0  0  0  0
   13.6009   -6.0267   21.9666 H   0  0  0  0  0  0  0  0  0  0  0  0
   13.4987   -3.4639   20.5127 H   0  0  0  0  0  0  0  0  0  0  0  0
   12.1737   -4.3282   21.2641 H   0  0  0  0  0  0  0  0  0  0  0  0
   13.4431   -3.6576   22.2885 H   0  0  0  0  0  0  0  0  0  0  0  0
   18.9110   -2.9311   17.2785 H   0  0  0  0  0  0  0  0  0  0  0  0
   19.4732   -4.2315   16.2508 H   0  0  0  0  0  0  0  0  0  0  0  0
   18.9368   -3.8712   13.4316 H   0  0  0  0  0  0  0  0  0  0  0  0
   18.2804   -1.5108   12.1958 H   0  0  0  0  0  0  0  0  0  0  0  0
   17.6279   -0.9182   16.1323 H   0  0  0  0  0  0  0  0  0  0  0  0
   14.8610   -3.9410   16.0992 H   0  0  0  0  0  0  0  0  0  0  0  0
  1  2  1  0
  2  3  1  0
  3  4  1  0
  4  5  1  0
  5  6  2  0
  6  7  1  0
  7  8  2  0
  8  9  1  0
  9 10  1  0
 10 11  1  0
 11 12  1  0
 12 13  1  0
 13 14  1  0
 13 15  1  0
 15 16  1  0
 10 17  1  0
 17 18  2  0
 17 19  1  0
 19 20  1  0
 20 21  2  0
 21 22  1  0
 22 23  2  0
 23 24  1  0
  9 25  2  0
 25  5  1  0
 24 20  1  0
  1 26  1  0
  1 27  1  0
  1 28  1  0
  2 29  1  0
  2 30  1  0
  3 31  1  0
  4 32  1  0
  4 33  1  0
  6 34  1  0
  7 35  1  0
  8 36  1  0
 11 37  1  0
 11 38  1  0
 12 39  1  0
 12 40  1  0
 13 41  1  0
 14 42  1  0
 15 43  1  0
 16 44  1  0
 16 45  1  0
 16 46  1  0
 19 47  1  0
 19 48  1  0
 21 49  1  0
 22 50  1  0
 24 51  1  0
 25 52  1  0
M  END
>  <Energy>  (523) 
61.303738666855942

>  <compound_id>  (523) 
4168

>  <target_id>  (523) 
1

>  <reference_id>  (523) 
60

>  <inspiration_ids>  (523) 
[146, 60]

>  <energy_score>  (523) 
25.851939695796176

>  <distance_score>  (523) 
2.483100219300186

>  <path>  (523) 
/opt/xchem-fragalysis-2/maxwin/BulkDock/SCRATCH/505735/C4168-P60/C4168-P60.minimised.mol

>  <scratch_subdir>  (523) 
/opt/xchem-fragalysis-2/maxwin/BulkDock/SCRATCH/505735/C4168-P60

>  <fragmenstein_runtime>  (523) 
4.750002145767212

>  <fragmenstein_outcome>  (523) 
too moved

>  <fragmenstein_mode>  (523) 
expansion

>  <fragmenstein_error>  (523) 


$$$$
C4169-P146
     RDKit          3D

 48 50  0  0  0  0  0  0  0  0999 V2000
   15.9507   -0.8956   18.9609 C   0  0  0  0  0  0  0  0  0  0  0  0
   16.7383    0.2204   17.8185 S   0  0  0  0  0  0  0  0  0  0  0  0
   18.1634   -0.0875   17.8715 O   0  0  0  0  0  0  0  0  0  0  0  0
   16.3226    1.5608   18.2009 O   0  0  0  0  0  0  0  0  0  0  0  0
   16.2422   -0.0538   16.0762 C   0  0  0  0  0  0  0  0  0  0  0  0
   16.3864    1.3052   15.3894 C   0  0  0  0  0  0  0  0  0  0  0  0
   16.5761    1.1154   13.9849 O   0  0  0  0  0  0  0  0  0  0  0  0
   14.9001   -0.7696   15.7808 C   0  0  0  0  0  0  0  0  0  0  0  0
   14.2364   -0.5079   14.3954 C   0  0  0  0  0  0  0  0  0  0  0  0
   12.7892   -0.7771   14.4633 N   0  0  0  0  0  0  0  0  0  0  0  0
   12.4912   -2.1558   14.8096 C   0  0  0  0  0  0  0  0  0  0  0  0
   13.3598   -2.7092   15.9177 C   0  0  0  0  0  0  0  0  0  0  0  0
   12.8763   -3.7561   16.6971 C   0  0  0  0  0  0  0  0  0  0  0  0
   13.7279   -4.3974   17.5800 C   0  0  0  0  0  0  0  0  0  0  0  0
   15.0909   -4.1170   17.5693 C   0  0  0  0  0  0  0  0  0  0  0  0
   15.6013   -3.0933   16.7741 C   0  0  0  0  0  0  0  0  0  0  0  0
   16.9852   -2.9269   16.6746 N   0  0  0  0  0  0  0  0  0  0  0  0
   18.1483   -3.6105   17.4628 C   0  0  0  0  0  0  0  0  0  0  0  0
   18.1171   -4.3581   18.3664 O   0  0  0  0  0  0  0  0  0  0  0  0
   19.5169   -3.0884   16.9737 C   0  0  0  0  0  0  0  0  0  0  0  0
   19.5674   -2.3563   15.6748 C   0  0  0  0  0  0  0  0  0  0  0  0
   19.5695   -2.8004   14.3705 C   0  0  0  0  0  0  0  0  0  0  0  0
   19.6778   -1.6344   13.5933 C   0  0  0  0  0  0  0  0  0  0  0  0
   19.7299   -0.5312   14.3411 N   0  0  0  0  0  0  0  0  0  0  0  0
   19.7095   -0.9920   15.6031 N   0  0  0  0  0  0  0  0  0  0  0  0
   14.6993   -2.2611   16.0938 C   0  0  0  0  0  0  0  0  0  0  0  0
   14.9277   -1.0859   18.6780 H   0  0  0  0  0  0  0  0  0  0  0  0
   15.9600   -0.4138   19.9428 H   0  0  0  0  0  0  0  0  0  0  0  0
   16.5260   -1.8157   19.0362 H   0  0  0  0  0  0  0  0  0  0  0  0
   17.0319   -0.6530   15.6346 H   0  0  0  0  0  0  0  0  0  0  0  0
   17.2759    1.8365   15.7470 H   0  0  0  0  0  0  0  0  0  0  0  0
   15.5222    1.9547   15.5447 H   0  0  0  0  0  0  0  0  0  0  0  0
   16.9270    1.9521   13.6288 H   0  0  0  0  0  0  0  0  0  0  0  0
   14.2398   -0.2891   16.4929 H   0  0  0  0  0  0  0  0  0  0  0  0
   14.7102   -1.1030   13.6050 H   0  0  0  0  0  0  0  0  0  0  0  0
   14.3047    0.5439   14.1138 H   0  0  0  0  0  0  0  0  0  0  0  0
   12.3607   -0.5475   13.5668 H   0  0  0  0  0  0  0  0  0  0  0  0
   11.4364   -2.2115   15.1020 H   0  0  0  0  0  0  0  0  0  0  0  0
   12.6209   -2.7931   13.9260 H   0  0  0  0  0  0  0  0  0  0  0  0
   11.8455   -4.0904   16.6145 H   0  0  0  0  0  0  0  0  0  0  0  0
   13.3473   -5.1743   18.2286 H   0  0  0  0  0  0  0  0  0  0  0  0
   15.7412   -4.7366   18.1821 H   0  0  0  0  0  0  0  0  0  0  0  0
   17.3642   -2.4042   15.9010 H   0  0  0  0  0  0  0  0  0  0  0  0
   19.9146   -2.4519   17.7739 H   0  0  0  0  0  0  0  0  0  0  0  0
   20.1778   -3.9614   16.8978 H   0  0  0  0  0  0  0  0  0  0  0  0
   19.5178   -3.8241   14.0246 H   0  0  0  0  0  0  0  0  0  0  0  0
   19.7167   -1.5416   12.5151 H   0  0  0  0  0  0  0  0  0  0  0  0
   19.7415   -0.3250   16.3746 H   0  0  0  0  0  0  0  0  0  0  0  0
  1  2  1  0
  2  3  2  0
  2  4  2  0
  2  5  1  0
  5  6  1  0
  6  7  1  0
  5  8  1  0
  8  9  1  0
  9 10  1  0
 10 11  1  0
 11 12  1  0
 12 13  2  0
 13 14  1  0
 14 15  2  0
 15 16  1  0
 16 17  1  0
 17 18  1  0
 18 19  2  0
 18 20  1  0
 20 21  1  0
 21 22  2  0
 22 23  1  0
 23 24  2  0
 24 25  1  0
 16 26  2  0
 26  8  1  0
 26 12  1  0
 25 21  1  0
  1 27  1  0
  1 28  1  0
  1 29  1  0
  5 30  1  0
  6 31  1  0
  6 32  1  0
  7 33  1  0
  8 34  1  0
  9 35  1  0
  9 36  1  0
 10 37  1  0
 11 38  1  0
 11 39  1  0
 13 40  1  0
 14 41  1  0
 15 42  1  0
 17 43  1  0
 20 44  1  0
 20 45  1  0
 22 46  1  0
 23 47  1  0
 25 48  1  0
M  END
>  <Energy>  (524) 
73.177724101535716

>  <compound_id>  (524) 
4169

>  <target_id>  (524) 
1

>  <reference_id>  (524) 
146

>  <inspiration_ids>  (524) 
[146, 61]

>  <energy_score>  (524) 
-64.46662713979168

>  <distance_score>  (524) 
1.5383179094447381

>  <path>  (524) 
/opt/xchem-fragalysis-2/maxwin/BulkDock/SCRATCH/505735/C4169-P146/C4169-P146.minimised.mol

>  <scratch_subdir>  (524) 
/opt/xchem-fragalysis-2/maxwin/BulkDock/SCRATCH/505735/C4169-P146

>  <fragmenstein_runtime>  (524) 
2.1015119552612305

>  <fragmenstein_outcome>  (524) 
too moved

>  <fragmenstein_mode>  (524) 
expansion

>  <fragmenstein_error>  (524) 


$$$$
C4169-P61
     RDKit          3D

 48 50  0  0  0  0  0  0  0  0999 V2000
   15.3331   -0.6904   19.2646 C   0  0  0  0  0  0  0  0  0  0  0  0
   15.1667    0.8594   18.4185 S   0  0  0  0  0  0  0  0  0  0  0  0
   16.3152    1.6653   18.8008 O   0  0  0  0  0  0  0  0  0  0  0  0
   13.8333    1.3513   18.7066 O   0  0  0  0  0  0  0  0  0  0  0  0
   15.2509    0.6366   16.6332 C   0  0  0  0  0  0  0  0  0  0  0  0
   16.6757    0.7108   16.1269 C   0  0  0  0  0  0  0  0  0  0  0  0
   16.8753   -0.1747   15.0391 O   0  0  0  0  0  0  0  0  0  0  0  0
   14.2527   -0.3745   16.0106 C   0  0  0  0  0  0  0  0  0  0  0  0
   13.8996   -0.1225   14.5124 C   0  0  0  0  0  0  0  0  0  0  0  0
   12.8686   -1.0172   13.9371 N   0  0  0  0  0  0  0  0  0  0  0  0
   12.1118   -1.7604   14.9559 C   0  0  0  0  0  0  0  0  0  0  0  0
   13.0422   -2.4773   15.9100 C   0  0  0  0  0  0  0  0  0  0  0  0
   12.6676   -3.6481   16.5489 C   0  0  0  0  0  0  0  0  0  0  0  0
   13.5643   -4.2463   17.4188 C   0  0  0  0  0  0  0  0  0  0  0  0
   14.8861   -3.8130   17.4840 C   0  0  0  0  0  0  0  0  0  0  0  0
   15.2833   -2.6580   16.8188 C   0  0  0  0  0  0  0  0  0  0  0  0
   16.6350   -2.3225   16.7795 N   0  0  0  0  0  0  0  0  0  0  0  0
   17.8573   -2.9385   17.5395 C   0  0  0  0  0  0  0  0  0  0  0  0
   17.8970   -3.7677   18.3687 O   0  0  0  0  0  0  0  0  0  0  0  0
   19.1461   -2.2078   17.1337 C   0  0  0  0  0  0  0  0  0  0  0  0
   19.3282   -1.9421   15.6835 C   0  0  0  0  0  0  0  0  0  0  0  0
   19.0647   -2.6809   14.5507 C   0  0  0  0  0  0  0  0  0  0  0  0
   19.4202   -1.8384   13.4817 C   0  0  0  0  0  0  0  0  0  0  0  0
   19.8679   -0.6517   13.9012 N   0  0  0  0  0  0  0  0  0  0  0  0
   19.9128   -0.7854   15.2355 N   0  0  0  0  0  0  0  0  0  0  0  0
   14.2934   -1.8799   16.2185 C   0  0  0  0  0  0  0  0  0  0  0  0
   14.4970   -1.3376   19.0137 H   0  0  0  0  0  0  0  0  0  0  0  0
   15.2878   -0.4760   20.3364 H   0  0  0  0  0  0  0  0  0  0  0  0
   16.3058   -1.1213   19.0440 H   0  0  0  0  0  0  0  0  0  0  0  0
   14.8340    1.6110   16.3216 H   0  0  0  0  0  0  0  0  0  0  0  0
   17.4134    0.4589   16.8940 H   0  0  0  0  0  0  0  0  0  0  0  0
   16.9048    1.7275   15.7863 H   0  0  0  0  0  0  0  0  0  0  0  0
   17.6287    0.1440   14.4974 H   0  0  0  0  0  0  0  0  0  0  0  0
   13.3315   -0.0914   16.5506 H   0  0  0  0  0  0  0  0  0  0  0  0
   14.7877   -0.2056   13.8790 H   0  0  0  0  0  0  0  0  0  0  0  0
   13.5423    0.9084   14.4026 H   0  0  0  0  0  0  0  0  0  0  0  0
   13.3426   -1.7090   13.3534 H   0  0  0  0  0  0  0  0  0  0  0  0
   11.4516   -1.0849   15.5124 H   0  0  0  0  0  0  0  0  0  0  0  0
   11.4754   -2.4900   14.4423 H   0  0  0  0  0  0  0  0  0  0  0  0
   11.6818   -4.0803   16.4053 H   0  0  0  0  0  0  0  0  0  0  0  0
   13.2517   -5.0866   18.0204 H   0  0  0  0  0  0  0  0  0  0  0  0
   15.5897   -4.3971   18.0709 H   0  0  0  0  0  0  0  0  0  0  0  0
   16.9533   -1.5636   16.1817 H   0  0  0  0  0  0  0  0  0  0  0  0
   19.1681   -1.2711   17.7040 H   0  0  0  0  0  0  0  0  0  0  0  0
   19.9927   -2.8155   17.4773 H   0  0  0  0  0  0  0  0  0  0  0  0
   18.6390   -3.6744   14.4953 H   0  0  0  0  0  0  0  0  0  0  0  0
   19.3438   -2.0308   12.4186 H   0  0  0  0  0  0  0  0  0  0  0  0
   20.3132   -0.0277   15.7815 H   0  0  0  0  0  0  0  0  0  0  0  0
  1  2  1  0
  2  3  2  0
  2  4  2  0
  2  5  1  0
  5  6  1  0
  6  7  1  0
  5  8  1  0
  8  9  1  0
  9 10  1  0
 10 11  1  0
 11 12  1  0
 12 13  2  0
 13 14  1  0
 14 15  2  0
 15 16  1  0
 16 17  1  0
 17 18  1  0
 18 19  2  0
 18 20  1  0
 20 21  1  0
 21 22  2  0
 22 23  1  0
 23 24  2  0
 24 25  1  0
 16 26  2  0
 26  8  1  0
 26 12  1  0
 25 21  1  0
  1 27  1  0
  1 28  1  0
  1 29  1  0
  5 30  1  0
  6 31  1  0
  6 32  1  0
  7 33  1  0
  8 34  1  0
  9 35  1  0
  9 36  1  0
 10 37  1  0
 11 38  1  0
 11 39  1  0
 13 40  1  0
 14 41  1  0
 15 42  1  0
 17 43  1  0
 20 44  1  0
 20 45  1  0
 22 46  1  0
 23 47  1  0
 25 48  1  0
M  END
>  <Energy>  (525) 
77.006686249876481

>  <compound_id>  (525) 
4169

>  <target_id>  (525) 
1

>  <reference_id>  (525) 
61

>  <inspiration_ids>  (525) 
[146, 61]

>  <energy_score>  (525) 
-60.63766499145436

>  <distance_score>  (525) 
1.148145658696249

>  <path>  (525) 
/opt/xchem-fragalysis-2/maxwin/BulkDock/SCRATCH/505735/C4169-P61/C4169-P61.minimised.mol

>  <scratch_subdir>  (525) 
/opt/xchem-fragalysis-2/maxwin/BulkDock/SCRATCH/505735/C4169-P61

>  <fragmenstein_runtime>  (525) 
2.0523288249969482

>  <fragmenstein_outcome>  (525) 
too moved

>  <fragmenstein_mode>  (525) 
expansion

>  <fragmenstein_error>  (525) 


$$$$
C4171-P146
     RDKit          3D

 53 55  0  0  0  0  0  0  0  0999 V2000
   18.0606    2.5232   15.2316 C   0  0  0  0  0  0  0  0  0  0  0  0
   16.8336    1.7755   14.6817 C   0  0  0  0  0  0  0  0  0  0  0  0
   15.5517    2.5086   15.1248 C   0  0  0  0  0  0  0  0  0  0  0  0
   15.4138    3.7876   14.5106 O   0  0  0  0  0  0  0  0  0  0  0  0
   16.9351    1.7858   13.1272 C   0  0  0  0  0  0  0  0  0  0  0  0
   15.7134    1.4210   12.4833 O   0  0  0  0  0  0  0  0  0  0  0  0
   16.8687    0.4236   15.2852 N   0  0  0  0  0  0  0  0  0  0  0  0
   17.2984   -0.8691   14.7170 C   0  0  0  0  0  0  0  0  0  0  0  0
   17.6249   -1.1319   13.6739 O   0  0  0  0  0  0  0  0  0  0  0  0
   17.2348   -1.7903   16.2250 N   0  0  0  0  0  0  0  0  0  0  0  0
   18.1255   -3.4175   16.2693 C   0  0  0  0  0  0  0  0  0  0  0  0
   17.8679   -4.4556   16.1253 O   0  0  0  0  0  0  0  0  0  0  0  0
   19.4891   -2.8367   16.6712 C   0  0  0  0  0  0  0  0  0  0  0  0
   20.1725   -2.1817   15.5264 C   0  0  0  0  0  0  0  0  0  0  0  0
   20.4695   -2.6205   14.2537 C   0  0  0  0  0  0  0  0  0  0  0  0
   21.0908   -1.5234   13.6306 C   0  0  0  0  0  0  0  0  0  0  0  0
   21.2168   -0.4783   14.4517 N   0  0  0  0  0  0  0  0  0  0  0  0
   20.6546   -0.9018   15.5922 N   0  0  0  0  0  0  0  0  0  0  0  0
   15.7407   -2.1456   16.1811 C   0  0  0  0  0  0  0  0  0  0  0  0
   15.4330   -2.7894   17.4166 C   0  0  0  0  0  0  0  0  0  0  0  0
   14.1908   -3.3354   17.7267 C   0  0  0  0  0  0  0  0  0  0  0  0
   13.1603   -3.2020   16.8241 C   0  0  0  0  0  0  0  0  0  0  0  0
   13.3662   -2.5151   15.6214 C   0  0  0  0  0  0  0  0  0  0  0  0
   14.6705   -2.0312   15.2538 C   0  0  0  0  0  0  0  0  0  0  0  0
   14.7747   -1.4945   13.8454 C   0  0  0  0  0  0  0  0  0  0  0  0
   13.5511   -1.6568   12.9539 C   0  0  0  0  0  0  0  0  0  0  0  0
   12.3121   -1.3864   13.6730 N   0  0  0  0  0  0  0  0  0  0  0  0
   12.1598   -2.4001   14.7048 C   0  0  0  0  0  0  0  0  0  0  0  0
   18.0468    2.5568   16.3276 H   0  0  0  0  0  0  0  0  0  0  0  0
   18.1056    3.5550   14.8666 H   0  0  0  0  0  0  0  0  0  0  0  0
   18.9900    2.0223   14.9359 H   0  0  0  0  0  0  0  0  0  0  0  0
   14.6713    1.9144   14.8613 H   0  0  0  0  0  0  0  0  0  0  0  0
   15.5725    2.6617   16.2081 H   0  0  0  0  0  0  0  0  0  0  0  0
   14.5658    4.1475   14.8295 H   0  0  0  0  0  0  0  0  0  0  0  0
   17.7241    1.1201   12.7670 H   0  0  0  0  0  0  0  0  0  0  0  0
   17.1957    2.7876   12.7634 H   0  0  0  0  0  0  0  0  0  0  0  0
   15.1405    2.2083   12.5251 H   0  0  0  0  0  0  0  0  0  0  0  0
   16.5645    0.2877   16.2398 H   0  0  0  0  0  0  0  0  0  0  0  0
   20.1073   -3.6649   17.0385 H   0  0  0  0  0  0  0  0  0  0  0  0
   19.3536   -2.1518   17.5160 H   0  0  0  0  0  0  0  0  0  0  0  0
   20.2419   -3.5847   13.8194 H   0  0  0  0  0  0  0  0  0  0  0  0
   21.4563   -1.4445   12.6146 H   0  0  0  0  0  0  0  0  0  0  0  0
   20.6336   -0.2586   16.3762 H   0  0  0  0  0  0  0  0  0  0  0  0
   16.2116   -2.9082   18.1716 H   0  0  0  0  0  0  0  0  0  0  0  0
   14.0357   -3.8628   18.6649 H   0  0  0  0  0  0  0  0  0  0  0  0
   12.1944   -3.6456   17.0515 H   0  0  0  0  0  0  0  0  0  0  0  0
   14.9584   -0.4244   13.9108 H   0  0  0  0  0  0  0  0  0  0  0  0
   15.5744   -2.0185   13.3184 H   0  0  0  0  0  0  0  0  0  0  0  0
   13.6511   -0.9578   12.1177 H   0  0  0  0  0  0  0  0  0  0  0  0
   13.5197   -2.6679   12.5292 H   0  0  0  0  0  0  0  0  0  0  0  0
   12.3732   -0.4666   14.1064 H   0  0  0  0  0  0  0  0  0  0  0  0
   11.2775   -2.1378   15.3013 H   0  0  0  0  0  0  0  0  0  0  0  0
   11.9568   -3.3750   14.2458 H   0  0  0  0  0  0  0  0  0  0  0  0
  1  2  1  0
  2  3  1  0
  3  4  1  0
  2  5  1  0
  5  6  1  0
  2  7  1  0
  7  8  1  0
  8  9  2  0
  8 10  1  0
 10 11  1  0
 11 12  2  0
 11 13  1  0
 13 14  1  0
 14 15  2  0
 15 16  1  0
 16 17  2  0
 17 18  1  0
 10 19  1  0
 19 20  2  0
 20 21  1  0
 21 22  2  0
 22 23  1  0
 23 24  2  0
 24 25  1  0
 25 26  1  0
 26 27  1  0
 27 28  1  0
 18 14  1  0
 24 19  1  0
 28 23  1  0
  1 29  1  0
  1 30  1  0
  1 31  1  0
  3 32  1  0
  3 33  1  0
  4 34  1  0
  5 35  1  0
  5 36  1  0
  6 37  1  0
  7 38  1  0
 13 39  1  0
 13 40  1  0
 15 41  1  0
 16 42  1  0
 18 43  1  0
 20 44  1  0
 21 45  1  0
 22 46  1  0
 25 47  1  0
 25 48  1  0
 26 49  1  0
 26 50  1  0
 27 51  1  0
 28 52  1  0
 28 53  1  0
M  END
>  <Energy>  (526) 
228.23892989202639

>  <compound_id>  (526) 
4171

>  <target_id>  (526) 
1

>  <reference_id>  (526) 
146

>  <inspiration_ids>  (526) 
[146, 76]

>  <energy_score>  (526) 
86.47830314477409

>  <distance_score>  (526) 
1.4842125168182814

>  <path>  (526) 
/opt/xchem-fragalysis-2/maxwin/BulkDock/SCRATCH/505735/C4171-P146/C4171-P146.minimised.mol

>  <scratch_subdir>  (526) 
/opt/xchem-fragalysis-2/maxwin/BulkDock/SCRATCH/505735/C4171-P146

>  <fragmenstein_runtime>  (526) 
4.278321981430054

>  <fragmenstein_outcome>  (526) 
too moved

>  <fragmenstein_mode>  (526) 
expansion

>  <fragmenstein_error>  (526) 


$$$$
C4171-P76
     RDKit          3D

 53 55  0  0  0  0  0  0  0  0999 V2000
   16.8746    3.0599   17.2953 C   0  0  0  0  0  0  0  0  0  0  0  0
   16.2838    2.3069   16.0939 C   0  0  0  0  0  0  0  0  0  0  0  0
   14.7474    2.4681   16.0868 C   0  0  0  0  0  0  0  0  0  0  0  0
   14.3345    3.8011   15.8077 O   0  0  0  0  0  0  0  0  0  0  0  0
   16.8886    2.9197   14.7994 C   0  0  0  0  0  0  0  0  0  0  0  0
   16.2175    2.4626   13.6245 O   0  0  0  0  0  0  0  0  0  0  0  0
   16.6290    0.8815   16.2505 N   0  0  0  0  0  0  0  0  0  0  0  0
   17.0943   -0.0988   15.2678 C   0  0  0  0  0  0  0  0  0  0  0  0
   17.3658    0.0306   14.1835 O   0  0  0  0  0  0  0  0  0  0  0  0
   17.1859   -1.4711   16.3706 N   0  0  0  0  0  0  0  0  0  0  0  0
   18.1696   -2.9432   15.8231 C   0  0  0  0  0  0  0  0  0  0  0  0
   17.9641   -3.8889   15.3474 O   0  0  0  0  0  0  0  0  0  0  0  0
   19.5359   -2.3450   16.1886 C   0  0  0  0  0  0  0  0  0  0  0  0
   20.3463   -2.0913   14.9622 C   0  0  0  0  0  0  0  0  0  0  0  0
   21.6063   -2.5275   14.6121 C   0  0  0  0  0  0  0  0  0  0  0  0
   21.8537   -1.9522   13.3548 C   0  0  0  0  0  0  0  0  0  0  0  0
   20.8387   -1.1981   12.9344 N   0  0  0  0  0  0  0  0  0  0  0  0
   19.9208   -1.3209   13.9072 N   0  0  0  0  0  0  0  0  0  0  0  0
   15.7373   -1.8987   16.2741 C   0  0  0  0  0  0  0  0  0  0  0  0
   15.4279   -2.6638   17.4290 C   0  0  0  0  0  0  0  0  0  0  0  0
   14.2027   -3.2952   17.6192 C   0  0  0  0  0  0  0  0  0  0  0  0
   13.2131   -3.1463   16.6681 C   0  0  0  0  0  0  0  0  0  0  0  0
   13.4416   -2.3617   15.5294 C   0  0  0  0  0  0  0  0  0  0  0  0
   14.7319   -1.7896   15.2794 C   0  0  0  0  0  0  0  0  0  0  0  0
   14.9166   -1.1647   13.9134 C   0  0  0  0  0  0  0  0  0  0  0  0
   13.7904   -1.4050   12.9169 C   0  0  0  0  0  0  0  0  0  0  0  0
   12.5001   -1.1898   13.5524 N   0  0  0  0  0  0  0  0  0  0  0  0
   12.2830   -2.2186   14.5555 C   0  0  0  0  0  0  0  0  0  0  0  0
   16.4800    2.6705   18.2412 H   0  0  0  0  0  0  0  0  0  0  0  0
   16.6477    4.1308   17.2538 H   0  0  0  0  0  0  0  0  0  0  0  0
   17.9648    2.9487   17.3304 H   0  0  0  0  0  0  0  0  0  0  0  0
   14.2653    1.7955   15.3692 H   0  0  0  0  0  0  0  0  0  0  0  0
   14.3638    2.2139   17.0769 H   0  0  0  0  0  0  0  0  0  0  0  0
   14.3809    3.8977   14.8359 H   0  0  0  0  0  0  0  0  0  0  0  0
   17.9570    2.6921   14.7056 H   0  0  0  0  0  0  0  0  0  0  0  0
   16.7942    4.0113   14.8095 H   0  0  0  0  0  0  0  0  0  0  0  0
   16.5961    1.5798   13.4277 H   0  0  0  0  0  0  0  0  0  0  0  0
   16.5563    0.4387   17.1597 H   0  0  0  0  0  0  0  0  0  0  0  0
   20.0386   -3.0753   16.8342 H   0  0  0  0  0  0  0  0  0  0  0  0
   19.4549   -1.4234   16.7726 H   0  0  0  0  0  0  0  0  0  0  0  0
   22.2593   -3.1719   15.1838 H   0  0  0  0  0  0  0  0  0  0  0  0
   22.7330   -2.0454   12.7306 H   0  0  0  0  0  0  0  0  0  0  0  0
   19.0296   -0.8454   13.7743 H   0  0  0  0  0  0  0  0  0  0  0  0
   16.1834   -2.8020   18.2032 H   0  0  0  0  0  0  0  0  0  0  0  0
   14.0222   -3.8928   18.5092 H   0  0  0  0  0  0  0  0  0  0  0  0
   12.2579   -3.6472   16.8105 H   0  0  0  0  0  0  0  0  0  0  0  0
   14.9731   -0.0805   14.0378 H   0  0  0  0  0  0  0  0  0  0  0  0
   15.8264   -1.5642   13.4543 H   0  0  0  0  0  0  0  0  0  0  0  0
   13.9049   -0.7161   12.0724 H   0  0  0  0  0  0  0  0  0  0  0  0
   13.8512   -2.4155   12.4965 H   0  0  0  0  0  0  0  0  0  0  0  0
   12.4492   -0.2677   13.9897 H   0  0  0  0  0  0  0  0  0  0  0  0
   11.3734   -1.9670   15.1126 H   0  0  0  0  0  0  0  0  0  0  0  0
   12.0882   -3.1765   14.0628 H   0  0  0  0  0  0  0  0  0  0  0  0
  1  2  1  0
  2  3  1  0
  3  4  1  0
  2  5  1  0
  5  6  1  0
  2  7  1  0
  7  8  1  0
  8  9  2  0
  8 10  1  0
 10 11  1  0
 11 12  2  0
 11 13  1  0
 13 14  1  0
 14 15  2  0
 15 16  1  0
 16 17  2  0
 17 18  1  0
 10 19  1  0
 19 20  2  0
 20 21  1  0
 21 22  2  0
 22 23  1  0
 23 24  2  0
 24 25  1  0
 25 26  1  0
 26 27  1  0
 27 28  1  0
 18 14  1  0
 24 19  1  0
 28 23  1  0
  1 29  1  0
  1 30  1  0
  1 31  1  0
  3 32  1  0
  3 33  1  0
  4 34  1  0
  5 35  1  0
  5 36  1  0
  6 37  1  0
  7 38  1  0
 13 39  1  0
 13 40  1  0
 15 41  1  0
 16 42  1  0
 18 43  1  0
 20 44  1  0
 21 45  1  0
 22 46  1  0
 25 47  1  0
 25 48  1  0
 26 49  1  0
 26 50  1  0
 27 51  1  0
 28 52  1  0
 28 53  1  0
M  END
>  <Energy>  (527) 
211.43453601643861

>  <compound_id>  (527) 
4171

>  <target_id>  (527) 
1

>  <reference_id>  (527) 
76

>  <inspiration_ids>  (527) 
[146, 76]

>  <energy_score>  (527) 
69.67390926918654

>  <distance_score>  (527) 
1.5309826983754091

>  <path>  (527) 
/opt/xchem-fragalysis-2/maxwin/BulkDock/SCRATCH/505735/C4171-P76/C4171-P76.minimised.mol

>  <scratch_subdir>  (527) 
/opt/xchem-fragalysis-2/maxwin/BulkDock/SCRATCH/505735/C4171-P76

>  <fragmenstein_runtime>  (527) 
4.259727716445923

>  <fragmenstein_outcome>  (527) 
too moved

>  <fragmenstein_mode>  (527) 
expansion

>  <fragmenstein_error>  (527) 


$$$$
C4172-P146
     RDKit          3D

 45 47  0  0  0  0  0  0  0  0999 V2000
   17.8263   -2.3311   18.5948 O   0  0  0  0  0  0  0  0  0  0  0  0
   17.7231   -1.7749   17.5688 C   0  0  0  0  0  0  0  0  0  0  0  0
   18.8239   -0.8557   17.0267 C   0  0  0  0  0  0  0  0  0  0  0  0
   19.2061   -1.1787   15.6223 C   0  0  0  0  0  0  0  0  0  0  0  0
   19.4544   -2.3725   14.9770 C   0  0  0  0  0  0  0  0  0  0  0  0
   19.7544   -2.0101   13.6522 C   0  0  0  0  0  0  0  0  0  0  0  0
   19.6990   -0.6900   13.4665 N   0  0  0  0  0  0  0  0  0  0  0  0
   19.4199   -0.2040   14.6840 N   0  0  0  0  0  0  0  0  0  0  0  0
   16.5189   -1.7000   16.5742 N   0  0  0  0  0  0  0  0  0  0  0  0
   15.2832   -2.3477   16.5980 C   0  0  0  0  0  0  0  0  0  0  0  0
   14.9570   -3.2012   17.6571 C   0  0  0  0  0  0  0  0  0  0  0  0
   13.7164   -3.8316   17.6984 C   0  0  0  0  0  0  0  0  0  0  0  0
   12.7975   -3.5898   16.6906 C   0  0  0  0  0  0  0  0  0  0  0  0
   11.6248   -4.2260   16.7213 F   0  0  0  0  0  0  0  0  0  0  0  0
   13.0759   -2.7242   15.6359 C   0  0  0  0  0  0  0  0  0  0  0  0
   14.3540   -2.1276   15.5593 C   0  0  0  0  0  0  0  0  0  0  0  0
   14.6725   -1.2391   14.3752 C   0  0  0  0  0  0  0  0  0  0  0  0
   13.6077   -1.2978   13.2683 C   0  0  0  0  0  0  0  0  0  0  0  0
   12.2217   -1.2916   13.7712 N   0  0  0  0  0  0  0  0  0  0  0  0
   11.9286   -0.0479   14.5238 C   0  0  0  0  0  0  0  0  0  0  0  0
   10.4408    0.2388   14.8165 C   0  0  0  0  0  0  0  0  0  0  0  0
    9.9326   -0.5263   15.9306 O   0  0  0  0  0  0  0  0  0  0  0  0
   10.2892    1.7374   15.1101 C   0  0  0  0  0  0  0  0  0  0  0  0
   10.6454    2.6717   14.4110 O   0  0  0  0  0  0  0  0  0  0  0  0
    9.5995    1.9636   16.2555 O   0  0  0  0  0  0  0  0  0  0  0  0
   12.0196   -2.5084   14.5750 C   0  0  0  0  0  0  0  0  0  0  0  0
   19.7060   -0.9631   17.6689 H   0  0  0  0  0  0  0  0  0  0  0  0
   18.4718    0.1784   17.1181 H   0  0  0  0  0  0  0  0  0  0  0  0
   19.4183   -3.3682   15.3995 H   0  0  0  0  0  0  0  0  0  0  0  0
   20.0037   -2.6513   12.8155 H   0  0  0  0  0  0  0  0  0  0  0  0
   19.3795    0.8047   14.7961 H   0  0  0  0  0  0  0  0  0  0  0  0
   16.7415   -1.0633   15.8205 H   0  0  0  0  0  0  0  0  0  0  0  0
   15.6587   -3.3943   18.4642 H   0  0  0  0  0  0  0  0  0  0  0  0
   13.4581   -4.5036   18.5114 H   0  0  0  0  0  0  0  0  0  0  0  0
   14.7731   -0.2069   14.7326 H   0  0  0  0  0  0  0  0  0  0  0  0
   15.6318   -1.5399   13.9370 H   0  0  0  0  0  0  0  0  0  0  0  0
   13.7590   -2.2104   12.6763 H   0  0  0  0  0  0  0  0  0  0  0  0
   13.7610   -0.4684   12.5670 H   0  0  0  0  0  0  0  0  0  0  0  0
   12.3084    0.7834   13.9153 H   0  0  0  0  0  0  0  0  0  0  0  0
   12.4883   -0.0226   15.4597 H   0  0  0  0  0  0  0  0  0  0  0  0
    9.8087    0.0234   13.9525 H   0  0  0  0  0  0  0  0  0  0  0  0
    9.1564   -0.0070   16.2267 H   0  0  0  0  0  0  0  0  0  0  0  0
    9.5336    2.9417   16.3138 H   0  0  0  0  0  0  0  0  0  0  0  0
   11.0194   -2.5114   15.0182 H   0  0  0  0  0  0  0  0  0  0  0  0
   12.0381   -3.3725   13.8982 H   0  0  0  0  0  0  0  0  0  0  0  0
  1  2  2  0
  2  3  1  0
  3  4  1  0
  4  5  2  0
  5  6  1  0
  6  7  2  0
  7  8  1  0
  2  9  1  0
  9 10  1  0
 10 11  2  0
 11 12  1  0
 12 13  2  0
 13 14  1  0
 13 15  1  0
 15 16  2  0
 16 17  1  0
 17 18  1  0
 18 19  1  0
 19 20  1  0
 20 21  1  0
 21 22  1  0
 21 23  1  0
 23 24  2  0
 23 25  1  0
 19 26  1  0
  8  4  1  0
 16 10  1  0
 26 15  1  0
  3 27  1  0
  3 28  1  0
  5 29  1  0
  6 30  1  0
  8 31  1  0
  9 32  1  0
 11 33  1  0
 12 34  1  0
 17 35  1  0
 17 36  1  0
 18 37  1  0
 18 38  1  0
 20 39  1  0
 20 40  1  0
 21 41  1  0
 22 42  1  0
 25 43  1  0
 26 44  1  0
 26 45  1  0
M  END
>  <Energy>  (528) 
93.88896780642493

>  <compound_id>  (528) 
4172

>  <target_id>  (528) 
1

>  <reference_id>  (528) 
146

>  <inspiration_ids>  (528) 
[146, 80]

>  <energy_score>  (528) 
-75.20986145885286

>  <distance_score>  (528) 
0.596806771269639

>  <path>  (528) 
/opt/xchem-fragalysis-2/maxwin/BulkDock/SCRATCH/505735/C4172-P146/C4172-P146.minimised.mol

>  <scratch_subdir>  (528) 
/opt/xchem-fragalysis-2/maxwin/BulkDock/SCRATCH/505735/C4172-P146

>  <fragmenstein_runtime>  (528) 
1.568375825881958

>  <fragmenstein_outcome>  (528) 
acceptable

>  <fragmenstein_mode>  (528) 
expansion

>  <fragmenstein_error>  (528) 


$$$$
C4172-P80
     RDKit          3D

 45 47  0  0  0  0  0  0  0  0999 V2000
   17.8783   -2.7404   18.7000 O   0  0  0  0  0  0  0  0  0  0  0  0
   17.8042   -2.0999   17.7217 C   0  0  0  0  0  0  0  0  0  0  0  0
   18.9631   -1.2139   17.2421 C   0  0  0  0  0  0  0  0  0  0  0  0
   19.2586   -1.3570   15.7859 C   0  0  0  0  0  0  0  0  0  0  0  0
   19.3613   -2.4583   14.9616 C   0  0  0  0  0  0  0  0  0  0  0  0
   19.6434   -1.9312   13.6893 C   0  0  0  0  0  0  0  0  0  0  0  0
   19.7175   -0.5990   13.7000 N   0  0  0  0  0  0  0  0  0  0  0  0
   19.5301   -0.2767   14.9881 N   0  0  0  0  0  0  0  0  0  0  0  0
   16.6012   -1.8697   16.7513 N   0  0  0  0  0  0  0  0  0  0  0  0
   15.3259   -2.4361   16.7395 C   0  0  0  0  0  0  0  0  0  0  0  0
   14.9281   -3.3077   17.7572 C   0  0  0  0  0  0  0  0  0  0  0  0
   13.6533   -3.8690   17.7451 C   0  0  0  0  0  0  0  0  0  0  0  0
   12.7774   -3.5520   16.7191 C   0  0  0  0  0  0  0  0  0  0  0  0
   11.5748   -4.1325   16.6874 F   0  0  0  0  0  0  0  0  0  0  0  0
   13.1242   -2.6503   15.7167 C   0  0  0  0  0  0  0  0  0  0  0  0
   14.4299   -2.1146   15.6985 C   0  0  0  0  0  0  0  0  0  0  0  0
   14.8230   -1.1869   14.5704 C   0  0  0  0  0  0  0  0  0  0  0  0
   13.7930   -1.1400   13.4365 C   0  0  0  0  0  0  0  0  0  0  0  0
   12.4019   -1.0859   13.9038 N   0  0  0  0  0  0  0  0  0  0  0  0
   12.1043    0.1188   14.7058 C   0  0  0  0  0  0  0  0  0  0  0  0
   10.6753    0.6175   14.4335 C   0  0  0  0  0  0  0  0  0  0  0  0
    9.6840   -0.2713   14.9476 O   0  0  0  0  0  0  0  0  0  0  0  0
   10.5267    2.0370   14.9729 C   0  0  0  0  0  0  0  0  0  0  0  0
   10.3389    3.0341   14.2886 O   0  0  0  0  0  0  0  0  0  0  0  0
   10.6177    2.1243   16.3132 O   0  0  0  0  0  0  0  0  0  0  0  0
   12.1033   -2.3231   14.6505 C   0  0  0  0  0  0  0  0  0  0  0  0
   19.8589   -1.4891   17.8114 H   0  0  0  0  0  0  0  0  0  0  0  0
   18.7132   -0.1772   17.4961 H   0  0  0  0  0  0  0  0  0  0  0  0
   19.2361   -3.4978   15.2349 H   0  0  0  0  0  0  0  0  0  0  0  0
   19.7895   -2.4610   12.7563 H   0  0  0  0  0  0  0  0  0  0  0  0
   19.5928    0.7031   15.2485 H   0  0  0  0  0  0  0  0  0  0  0  0
   16.8595   -1.1919   16.0472 H   0  0  0  0  0  0  0  0  0  0  0  0
   15.5964   -3.5599   18.5762 H   0  0  0  0  0  0  0  0  0  0  0  0
   13.3327   -4.5385   18.5368 H   0  0  0  0  0  0  0  0  0  0  0  0
   14.9568   -0.1800   14.9846 H   0  0  0  0  0  0  0  0  0  0  0  0
   15.7802   -1.5080   14.1424 H   0  0  0  0  0  0  0  0  0  0  0  0
   13.9147   -2.0246   12.7963 H   0  0  0  0  0  0  0  0  0  0  0  0
   14.0037   -0.2839   12.7835 H   0  0  0  0  0  0  0  0  0  0  0  0
   12.7904    0.9277   14.4203 H   0  0  0  0  0  0  0  0  0  0  0  0
   12.2536   -0.0512   15.7793 H   0  0  0  0  0  0  0  0  0  0  0  0
   10.5159    0.6983   13.3503 H   0  0  0  0  0  0  0  0  0  0  0  0
    9.5463   -0.9296   14.2240 H   0  0  0  0  0  0  0  0  0  0  0  0
   10.5215    3.0736   16.5386 H   0  0  0  0  0  0  0  0  0  0  0  0
   11.1098   -2.2648   15.1064 H   0  0  0  0  0  0  0  0  0  0  0  0
   12.0482   -3.1514   13.9359 H   0  0  0  0  0  0  0  0  0  0  0  0
  1  2  2  0
  2  3  1  0
  3  4  1  0
  4  5  2  0
  5  6  1  0
  6  7  2  0
  7  8  1  0
  2  9  1  0
  9 10  1  0
 10 11  2  0
 11 12  1  0
 12 13  2  0
 13 14  1  0
 13 15  1  0
 15 16  2  0
 16 17  1  0
 17 18  1  0
 18 19  1  0
 19 20  1  0
 20 21  1  0
 21 22  1  0
 21 23  1  0
 23 24  2  0
 23 25  1  0
 19 26  1  0
  8  4  1  0
 16 10  1  0
 26 15  1  0
  3 27  1  0
  3 28  1  0
  5 29  1  0
  6 30  1  0
  8 31  1  0
  9 32  1  0
 11 33  1  0
 12 34  1  0
 17 35  1  0
 17 36  1  0
 18 37  1  0
 18 38  1  0
 20 39  1  0
 20 40  1  0
 21 41  1  0
 22 42  1  0
 25 43  1  0
 26 44  1  0
 26 45  1  0
M  END
>  <Energy>  (529) 
99.820851676092545

>  <compound_id>  (529) 
4172

>  <target_id>  (529) 
1

>  <reference_id>  (529) 
80

>  <inspiration_ids>  (529) 
[146, 80]

>  <energy_score>  (529) 
-69.27797758918939

>  <distance_score>  (529) 
0.6213210458987419

>  <path>  (529) 
/opt/xchem-fragalysis-2/maxwin/BulkDock/SCRATCH/505735/C4172-P80/C4172-P80.minimised.mol

>  <scratch_subdir>  (529) 
/opt/xchem-fragalysis-2/maxwin/BulkDock/SCRATCH/505735/C4172-P80

>  <fragmenstein_runtime>  (529) 
1.505023717880249

>  <fragmenstein_outcome>  (529) 
acceptable

>  <fragmenstein_mode>  (529) 
expansion

>  <fragmenstein_error>  (529) 


$$$$
C4180-P146
     RDKit          3D

 40 44  0  0  0  0  0  0  0  0999 V2000
   11.8994   -0.8218   15.6422 O   0  0  0  0  0  0  0  0  0  0  0  0
   12.3629   -2.0106   14.9876 S   0  0  0  0  0  0  0  0  0  0  0  0
   11.5557   -2.9203   14.2118 O   0  0  0  0  0  0  0  0  0  0  0  0
   13.4344   -2.8835   16.0630 C   0  0  0  0  0  0  0  0  0  0  0  0
   13.1464   -3.5438   17.2287 C   0  0  0  0  0  0  0  0  0  0  0  0
   14.2304   -3.9659   17.9898 C   0  0  0  0  0  0  0  0  0  0  0  0
   13.9591   -4.5621   19.1825 O   0  0  0  0  0  0  0  0  0  0  0  0
   15.5525   -3.7710   17.5685 C   0  0  0  0  0  0  0  0  0  0  0  0
   15.8158   -3.1508   16.3501 C   0  0  0  0  0  0  0  0  0  0  0  0
   14.7396   -2.7182   15.6098 C   0  0  0  0  0  0  0  0  0  0  0  0
   14.7589   -2.0178   14.3671 C   0  0  0  0  0  0  0  0  0  0  0  0
   15.6777   -1.6538   13.5201 N   0  0  0  0  0  0  0  0  0  0  0  0
   15.0990   -0.6580   12.7531 N   0  0  0  0  0  0  0  0  0  0  0  0
   13.8654   -0.4344   13.2027 C   0  0  0  0  0  0  0  0  0  0  0  0
   13.1919    0.8860   13.1592 C   0  0  0  0  0  0  0  0  0  0  0  0
   11.9246    0.9595   12.4484 N   0  0  0  0  0  0  0  0  0  0  0  0
   10.7597    0.8470   13.3122 C   0  0  0  0  0  0  0  0  0  0  0  0
   10.6050    1.9283   14.3609 C   0  0  0  0  0  0  0  0  0  0  0  0
   11.0829    3.1875   14.2274 C   0  0  0  0  0  0  0  0  0  0  0  0
   10.9355    4.1451   15.3125 C   0  0  0  0  0  0  0  0  0  0  0  0
   10.3547    3.8053   16.4778 C   0  0  0  0  0  0  0  0  0  0  0  0
    9.8530    2.4888   16.6462 C   0  0  0  0  0  0  0  0  0  0  0  0
    9.2976    1.8713   17.6685 N   0  0  0  0  0  0  0  0  0  0  0  0
    8.9921    0.5896   17.2696 N   0  0  0  0  0  0  0  0  0  0  0  0
    9.3075    0.4842   15.9972 C   0  0  0  0  0  0  0  0  0  0  0  0
    9.9584    1.6142   15.5712 N   0  0  0  0  0  0  0  0  0  0  0  0
   13.5699   -1.5050   13.9801 N   0  0  0  0  0  0  0  0  0  0  0  0
   12.1365   -3.7170   17.5572 H   0  0  0  0  0  0  0  0  0  0  0  0
   14.7843   -4.8416   19.6108 H   0  0  0  0  0  0  0  0  0  0  0  0
   16.3848   -4.1086   18.1814 H   0  0  0  0  0  0  0  0  0  0  0  0
   16.8371   -2.9987   16.0115 H   0  0  0  0  0  0  0  0  0  0  0  0
   13.1409    1.2859   14.1775 H   0  0  0  0  0  0  0  0  0  0  0  0
   13.8698    1.5709   12.6331 H   0  0  0  0  0  0  0  0  0  0  0  0
   11.9098    0.3003   11.6663 H   0  0  0  0  0  0  0  0  0  0  0  0
    9.8787    0.8936   12.6804 H   0  0  0  0  0  0  0  0  0  0  0  0
   10.7311   -0.1512   13.7382 H   0  0  0  0  0  0  0  0  0  0  0  0
   11.6002    3.5143   13.3294 H   0  0  0  0  0  0  0  0  0  0  0  0
   11.3342    5.1439   15.1606 H   0  0  0  0  0  0  0  0  0  0  0  0
   10.2634    4.5108   17.2951 H   0  0  0  0  0  0  0  0  0  0  0  0
    9.1210   -0.3715   15.3634 H   0  0  0  0  0  0  0  0  0  0  0  0
  1  2  2  0
  2  3  2  0
  2  4  1  0
  4  5  2  0
  5  6  1  0
  6  7  1  0
  6  8  2  0
  8  9  1  0
  9 10  2  0
 10 11  1  0
 11 12  2  0
 12 13  1  0
 13 14  2  0
 14 15  1  0
 15 16  1  0
 16 17  1  0
 17 18  1  0
 18 19  2  0
 19 20  1  0
 20 21  2  0
 21 22  1  0
 22 23  2  0
 23 24  1  0
 24 25  2  0
 25 26  1  0
 14 27  1  0
 27  2  1  0
 10  4  1  0
 27 11  1  0
 26 18  1  0
 26 22  1  0
  5 28  1  0
  7 29  1  0
  8 30  1  0
  9 31  1  0
 15 32  1  0
 15 33  1  0
 16 34  1  0
 17 35  1  0
 17 36  1  0
 19 37  1  0
 20 38  1  0
 21 39  1  0
 25 40  1  0
M  END
>  <Energy>  (530) 
56.974616367550716

>  <compound_id>  (530) 
4180

>  <target_id>  (530) 
1

>  <reference_id>  (530) 
146

>  <inspiration_ids>  (530) 
[146, 114]

>  <energy_score>  (530) 
-26.998604288063234

>  <distance_score>  (530) 
2.1228367813346725

>  <path>  (530) 
/opt/xchem-fragalysis-2/maxwin/BulkDock/SCRATCH/505735/C4180-P146/C4180-P146.minimised.mol

>  <scratch_subdir>  (530) 
/opt/xchem-fragalysis-2/maxwin/BulkDock/SCRATCH/505735/C4180-P146

>  <fragmenstein_runtime>  (530) 
1.487194538116455

>  <fragmenstein_outcome>  (530) 
too moved

>  <fragmenstein_mode>  (530) 
expansion

>  <fragmenstein_error>  (530) 


$$$$
C4180-P114
     RDKit          3D

 40 44  0  0  0  0  0  0  0  0999 V2000
   12.4837   -0.0672   16.5697 O   0  0  0  0  0  0  0  0  0  0  0  0
   12.1320   -1.3035   15.9136 S   0  0  0  0  0  0  0  0  0  0  0  0
   10.7920   -1.8241   15.7937 O   0  0  0  0  0  0  0  0  0  0  0  0
   13.2881   -2.5373   16.3851 C   0  0  0  0  0  0  0  0  0  0  0  0
   13.3670   -3.2463   17.5616 C   0  0  0  0  0  0  0  0  0  0  0  0
   14.5098   -4.0069   17.7586 C   0  0  0  0  0  0  0  0  0  0  0  0
   14.6518   -4.7688   18.8814 O   0  0  0  0  0  0  0  0  0  0  0  0
   15.5448   -4.0279   16.8165 C   0  0  0  0  0  0  0  0  0  0  0  0
   15.4343   -3.3150   15.6215 C   0  0  0  0  0  0  0  0  0  0  0  0
   14.2773   -2.5994   15.4037 C   0  0  0  0  0  0  0  0  0  0  0  0
   13.9211   -1.7993   14.2670 C   0  0  0  0  0  0  0  0  0  0  0  0
   14.5102   -1.4181   13.1670 N   0  0  0  0  0  0  0  0  0  0  0  0
   13.7460   -0.3711   12.6605 N   0  0  0  0  0  0  0  0  0  0  0  0
   12.7150   -0.1560   13.4744 C   0  0  0  0  0  0  0  0  0  0  0  0
   11.7346    0.9587   13.4374 C   0  0  0  0  0  0  0  0  0  0  0  0
   12.4235    2.1976   13.0580 N   0  0  0  0  0  0  0  0  0  0  0  0
   11.5308    3.3479   12.9694 C   0  0  0  0  0  0  0  0  0  0  0  0
   11.2224    3.9996   14.2943 C   0  0  0  0  0  0  0  0  0  0  0  0
   12.0095    3.8758   15.3879 C   0  0  0  0  0  0  0  0  0  0  0  0
   11.6411    4.5272   16.6317 C   0  0  0  0  0  0  0  0  0  0  0  0
   10.5068    5.2407   16.7441 C   0  0  0  0  0  0  0  0  0  0  0  0
    9.6507    5.3653   15.6213 C   0  0  0  0  0  0  0  0  0  0  0  0
    8.4831    5.9485   15.4570 N   0  0  0  0  0  0  0  0  0  0  0  0
    8.1096    5.7763   14.1451 N   0  0  0  0  0  0  0  0  0  0  0  0
    9.0585    5.0942   13.5435 C   0  0  0  0  0  0  0  0  0  0  0  0
   10.0493    4.7651   14.4320 N   0  0  0  0  0  0  0  0  0  0  0  0
   12.7381   -1.1540   14.3827 N   0  0  0  0  0  0  0  0  0  0  0  0
   12.5981   -3.2081   18.3105 H   0  0  0  0  0  0  0  0  0  0  0  0
   13.9276   -4.5580   19.5009 H   0  0  0  0  0  0  0  0  0  0  0  0
   16.4353   -4.6225   17.0102 H   0  0  0  0  0  0  0  0  0  0  0  0
   16.2283   -3.3474   14.8793 H   0  0  0  0  0  0  0  0  0  0  0  0
   10.9595    0.7202   12.7026 H   0  0  0  0  0  0  0  0  0  0  0  0
   11.2449    1.0787   14.4086 H   0  0  0  0  0  0  0  0  0  0  0  0
   12.8948    2.0409   12.1645 H   0  0  0  0  0  0  0  0  0  0  0  0
   12.0133    4.1062   12.3400 H   0  0  0  0  0  0  0  0  0  0  0  0
   10.6186    3.0538   12.4438 H   0  0  0  0  0  0  0  0  0  0  0  0
   12.9324    3.3012   15.3778 H   0  0  0  0  0  0  0  0  0  0  0  0
   12.3050    4.4052   17.4840 H   0  0  0  0  0  0  0  0  0  0  0  0
   10.2306    5.7164   17.6773 H   0  0  0  0  0  0  0  0  0  0  0  0
    9.0644    4.8191   12.4993 H   0  0  0  0  0  0  0  0  0  0  0  0
  1  2  2  0
  2  3  2  0
  2  4  1  0
  4  5  2  0
  5  6  1  0
  6  7  1  0
  6  8  2  0
  8  9  1  0
  9 10  2  0
 10 11  1  0
 11 12  2  0
 12 13  1  0
 13 14  2  0
 14 15  1  0
 15 16  1  0
 16 17  1  0
 17 18  1  0
 18 19  2  0
 19 20  1  0
 20 21  2  0
 21 22  1  0
 22 23  2  0
 23 24  1  0
 24 25  2  0
 25 26  1  0
 14 27  1  0
 27  2  1  0
 10  4  1  0
 27 11  1  0
 26 18  1  0
 26 22  1  0
  5 28  1  0
  7 29  1  0
  8 30  1  0
  9 31  1  0
 15 32  1  0
 15 33  1  0
 16 34  1  0
 17 35  1  0
 17 36  1  0
 19 37  1  0
 20 38  1  0
 21 39  1  0
 25 40  1  0
M  END
>  <Energy>  (531) 
42.245455099961042

>  <compound_id>  (531) 
4180

>  <target_id>  (531) 
1

>  <reference_id>  (531) 
114

>  <inspiration_ids>  (531) 
[146, 114]

>  <energy_score>  (531) 
-41.72776555565409

>  <distance_score>  (531) 
1.9946689465242988

>  <path>  (531) 
/opt/xchem-fragalysis-2/maxwin/BulkDock/SCRATCH/505735/C4180-P114/C4180-P114.minimised.mol

>  <scratch_subdir>  (531) 
/opt/xchem-fragalysis-2/maxwin/BulkDock/SCRATCH/505735/C4180-P114

>  <fragmenstein_runtime>  (531) 
1.821976900100708

>  <fragmenstein_outcome>  (531) 
too moved

>  <fragmenstein_mode>  (531) 
expansion

>  <fragmenstein_error>  (531) 


$$$$
C4182-P146
     RDKit          3D

 57 61  0  0  0  0  0  0  0  0999 V2000
   15.1656   -0.9021   15.7534 C   0  0  0  0  0  0  0  0  0  0  0  0
   14.7212   -1.8894   16.8052 C   0  0  0  0  0  0  0  0  0  0  0  0
   13.7728   -2.8545   16.3967 C   0  0  0  0  0  0  0  0  0  0  0  0
   13.3271   -3.8259   17.2851 C   0  0  0  0  0  0  0  0  0  0  0  0
   13.8407   -3.8482   18.5733 C   0  0  0  0  0  0  0  0  0  0  0  0
   13.4400   -4.7932   19.4309 F   0  0  0  0  0  0  0  0  0  0  0  0
   14.7571   -2.8973   19.0142 C   0  0  0  0  0  0  0  0  0  0  0  0
   15.2010   -1.8834   18.1584 C   0  0  0  0  0  0  0  0  0  0  0  0
   16.1934   -0.9537   18.6285 N   0  0  0  0  0  0  0  0  0  0  0  0
   17.4983   -1.4426   18.1173 C   0  0  0  0  0  0  0  0  0  0  0  0
   18.0364   -0.5018   17.2090 O   0  0  0  0  0  0  0  0  0  0  0  0
   16.1264   -0.0505   19.7830 C   0  0  0  0  0  0  0  0  0  0  0  0
   14.9331    0.1144   20.7187 C   0  0  0  0  0  0  0  0  0  0  0  0
   14.7468    1.2265   21.5239 C   0  0  0  0  0  0  0  0  0  0  0  0
   13.4671    1.6056   22.3629 C   0  0  0  0  0  0  0  0  0  0  0  0
   12.6473    2.8911   22.1495 N   0  0  0  0  0  0  0  0  0  0  0  0
   12.4474    3.2285   20.7362 C   0  0  0  0  0  0  0  0  0  0  0  0
   11.3421    3.9442   19.9562 C   0  0  0  0  0  0  0  0  0  0  0  0
   11.5548    5.0245   19.2180 N   0  0  0  0  0  0  0  0  0  0  0  0
   11.1343    4.7460   17.9144 N   0  0  0  0  0  0  0  0  0  0  0  0
   10.5477    3.5585   17.8935 C   0  0  0  0  0  0  0  0  0  0  0  0
   10.3457    2.6413   16.7306 C   0  0  0  0  0  0  0  0  0  0  0  0
   11.1932    2.7380   15.6082 C   0  0  0  0  0  0  0  0  0  0  0  0
   11.2841    1.7059   14.6617 C   0  0  0  0  0  0  0  0  0  0  0  0
   10.4842    0.5760   14.7832 C   0  0  0  0  0  0  0  0  0  0  0  0
    9.5534    0.5109   15.8179 C   0  0  0  0  0  0  0  0  0  0  0  0
    9.4730    1.5419   16.7798 C   0  0  0  0  0  0  0  0  0  0  0  0
   10.3575    3.2387   19.2441 N   0  0  0  0  0  0  0  0  0  0  0  0
   15.8483    2.0869   21.6202 N   0  0  0  0  0  0  0  0  0  0  0  0
   16.0474    3.2323   22.3453 C   0  0  0  0  0  0  0  0  0  0  0  0
   17.2638    3.6886   22.1524 N   0  0  0  0  0  0  0  0  0  0  0  0
   17.8902    2.8458   21.2662 N   0  0  0  0  0  0  0  0  0  0  0  0
   17.0414    1.8932   20.9437 C   0  0  0  0  0  0  0  0  0  0  0  0
   17.1405    0.8291   20.0068 C   0  0  0  0  0  0  0  0  0  0  0  0
   15.3707    0.0755   16.1968 H   0  0  0  0  0  0  0  0  0  0  0  0
   14.3855   -0.7468   15.0001 H   0  0  0  0  0  0  0  0  0  0  0  0
   16.0668   -1.2702   15.2544 H   0  0  0  0  0  0  0  0  0  0  0  0
   13.3813   -2.8459   15.3813 H   0  0  0  0  0  0  0  0  0  0  0  0
   12.5972   -4.5715   16.9888 H   0  0  0  0  0  0  0  0  0  0  0  0
   15.1283   -2.9700   20.0323 H   0  0  0  0  0  0  0  0  0  0  0  0
   17.4433   -2.4088   17.5995 H   0  0  0  0  0  0  0  0  0  0  0  0
   18.2072   -1.5785   18.9424 H   0  0  0  0  0  0  0  0  0  0  0  0
   17.3480    0.1817   17.1550 H   0  0  0  0  0  0  0  0  0  0  0  0
   14.1794   -0.6587   20.6593 H   0  0  0  0  0  0  0  0  0  0  0  0
   12.7627    0.7710   22.3218 H   0  0  0  0  0  0  0  0  0  0  0  0
   13.7803    1.6389   23.4150 H   0  0  0  0  0  0  0  0  0  0  0  0
   11.7450    2.7604   22.6048 H   0  0  0  0  0  0  0  0  0  0  0  0
   12.2910    2.2603   20.3254 H   0  0  0  0  0  0  0  0  0  0  0  0
   13.3773    3.7055   20.4167 H   0  0  0  0  0  0  0  0  0  0  0  0
   11.8830    3.5793   15.5310 H   0  0  0  0  0  0  0  0  0  0  0  0
   12.0016    1.7860   13.8490 H   0  0  0  0  0  0  0  0  0  0  0  0
   10.5447   -0.2198   14.0445 H   0  0  0  0  0  0  0  0  0  0  0  0
    8.8718   -0.3330   15.8717 H   0  0  0  0  0  0  0  0  0  0  0  0
    8.7381    1.4545   17.5767 H   0  0  0  0  0  0  0  0  0  0  0  0
    9.9460    2.3798   19.5543 H   0  0  0  0  0  0  0  0  0  0  0  0
   15.2986    3.6795   22.9831 H   0  0  0  0  0  0  0  0  0  0  0  0
   18.0423    0.8322   19.4053 H   0  0  0  0  0  0  0  0  0  0  0  0
  1  2  1  0
  2  3  2  0
  3  4  1  0
  4  5  2  0
  5  6  1  0
  5  7  1  0
  7  8  2  0
  8  9  1  0
  9 10  1  0
 10 11  1  0
  9 12  1  0
 12 13  1  0
 13 14  2  0
 14 15  1  0
 15 16  1  0
 16 17  1  0
 17 18  1  0
 18 19  2  0
 19 20  1  0
 20 21  2  0
 21 22  1  0
 22 23  2  0
 23 24  1  0
 24 25  2  0
 25 26  1  0
 26 27  2  0
 21 28  1  0
 14 29  1  0
 29 30  1  0
 30 31  2  0
 31 32  1  0
 32 33  2  0
 33 34  1  0
  8  2  1  0
 34 12  2  0
 28 18  1  0
 33 29  1  0
 27 22  1  0
  1 35  1  0
  1 36  1  0
  1 37  1  0
  3 38  1  0
  4 39  1  0
  7 40  1  0
 10 41  1  0
 10 42  1  0
 11 43  1  0
 13 44  1  0
 15 45  1  0
 15 46  1  0
 16 47  1  0
 17 48  1  0
 17 49  1  0
 23 50  1  0
 24 51  1  0
 25 52  1  0
 26 53  1  0
 27 54  1  0
 28 55  1  0
 30 56  1  0
 34 57  1  0
M  END
>  <Energy>  (532) 
93.995396809238073

>  <compound_id>  (532) 
4182

>  <target_id>  (532) 
1

>  <reference_id>  (532) 
146

>  <inspiration_ids>  (532) 
[146, 118]

>  <energy_score>  (532) 
19.154489587231865

>  <distance_score>  (532) 
2.3003085261891068

>  <path>  (532) 
/opt/xchem-fragalysis-2/maxwin/BulkDock/SCRATCH/505735/C4182-P146/C4182-P146.minimised.mol

>  <scratch_subdir>  (532) 
/opt/xchem-fragalysis-2/maxwin/BulkDock/SCRATCH/505735/C4182-P146

>  <fragmenstein_runtime>  (532) 
14.460415124893188

>  <fragmenstein_outcome>  (532) 
too moved

>  <fragmenstein_mode>  (532) 
expansion

>  <fragmenstein_error>  (532) 


$$$$
C4182-P118
     RDKit          3D

 57 61  0  0  0  0  0  0  0  0999 V2000
   14.5227   -1.2495   14.4867 C   0  0  0  0  0  0  0  0  0  0  0  0
   14.1990   -2.0085   15.7488 C   0  0  0  0  0  0  0  0  0  0  0  0
   13.0125   -2.7622   15.8074 C   0  0  0  0  0  0  0  0  0  0  0  0
   12.7804   -3.6413   16.8609 C   0  0  0  0  0  0  0  0  0  0  0  0
   13.7232   -3.7571   17.8672 C   0  0  0  0  0  0  0  0  0  0  0  0
   13.5429   -4.6536   18.8451 F   0  0  0  0  0  0  0  0  0  0  0  0
   14.8639   -2.9628   17.8744 C   0  0  0  0  0  0  0  0  0  0  0  0
   15.1123   -2.0600   16.8245 C   0  0  0  0  0  0  0  0  0  0  0  0
   16.2318   -1.1645   16.8331 N   0  0  0  0  0  0  0  0  0  0  0  0
   17.4698   -1.8653   17.2064 C   0  0  0  0  0  0  0  0  0  0  0  0
   18.5713   -1.2042   16.6066 O   0  0  0  0  0  0  0  0  0  0  0  0
   16.0258    0.1303   17.3635 C   0  0  0  0  0  0  0  0  0  0  0  0
   16.6156    1.2617   16.6221 C   0  0  0  0  0  0  0  0  0  0  0  0
   16.5503    2.5323   17.0878 C   0  0  0  0  0  0  0  0  0  0  0  0
   17.2036    3.6841   16.3581 C   0  0  0  0  0  0  0  0  0  0  0  0
   16.3588    4.8835   16.2574 N   0  0  0  0  0  0  0  0  0  0  0  0
   16.1032    5.3146   14.8692 C   0  0  0  0  0  0  0  0  0  0  0  0
   14.9874    4.5832   14.2198 C   0  0  0  0  0  0  0  0  0  0  0  0
   14.6842    4.5346   12.9409 N   0  0  0  0  0  0  0  0  0  0  0  0
   13.6043    3.6907   12.7968 N   0  0  0  0  0  0  0  0  0  0  0  0
   13.2841    3.2148   13.9869 C   0  0  0  0  0  0  0  0  0  0  0  0
   12.3655    2.1351   14.2854 C   0  0  0  0  0  0  0  0  0  0  0  0
   12.5157    1.3751   15.4483 C   0  0  0  0  0  0  0  0  0  0  0  0
   11.7245    0.2563   15.6702 C   0  0  0  0  0  0  0  0  0  0  0  0
   10.7562   -0.1043   14.7552 C   0  0  0  0  0  0  0  0  0  0  0  0
   10.5877    0.6654   13.6123 C   0  0  0  0  0  0  0  0  0  0  0  0
   11.3898    1.7738   13.3638 C   0  0  0  0  0  0  0  0  0  0  0  0
   14.0653    3.8525   14.9137 N   0  0  0  0  0  0  0  0  0  0  0  0
   15.8782    2.7320   18.3050 N   0  0  0  0  0  0  0  0  0  0  0  0
   15.6564    3.8469   19.0711 C   0  0  0  0  0  0  0  0  0  0  0  0
   14.9091    3.5525   20.1105 N   0  0  0  0  0  0  0  0  0  0  0  0
   14.6481    2.2062   20.0675 N   0  0  0  0  0  0  0  0  0  0  0  0
   15.2454    1.7150   19.0042 C   0  0  0  0  0  0  0  0  0  0  0  0
   15.3444    0.3939   18.5037 C   0  0  0  0  0  0  0  0  0  0  0  0
   15.3732   -1.7217   13.9835 H   0  0  0  0  0  0  0  0  0  0  0  0
   14.7702   -0.2069   14.6966 H   0  0  0  0  0  0  0  0  0  0  0  0
   13.6819   -1.2562   13.7852 H   0  0  0  0  0  0  0  0  0  0  0  0
   12.2991   -2.7266   14.9845 H   0  0  0  0  0  0  0  0  0  0  0  0
   11.8969   -4.2701   16.8752 H   0  0  0  0  0  0  0  0  0  0  0  0
   15.5352   -3.0515   18.7224 H   0  0  0  0  0  0  0  0  0  0  0  0
   17.4867   -2.8984   16.8384 H   0  0  0  0  0  0  0  0  0  0  0  0
   17.6212   -1.8768   18.2919 H   0  0  0  0  0  0  0  0  0  0  0  0
   18.2883   -1.0963   15.6836 H   0  0  0  0  0  0  0  0  0  0  0  0
   17.1204    1.0296   15.6889 H   0  0  0  0  0  0  0  0  0  0  0  0
   17.5557    3.3585   15.3709 H   0  0  0  0  0  0  0  0  0  0  0  0
   18.1104    3.9559   16.9148 H   0  0  0  0  0  0  0  0  0  0  0  0
   16.8743    5.6531   16.6919 H   0  0  0  0  0  0  0  0  0  0  0  0
   15.8179    6.3734   14.9007 H   0  0  0  0  0  0  0  0  0  0  0  0
   17.0141    5.2602   14.2620 H   0  0  0  0  0  0  0  0  0  0  0  0
   13.2896    1.5959   16.1774 H   0  0  0  0  0  0  0  0  0  0  0  0
   11.9053   -0.3640   16.5384 H   0  0  0  0  0  0  0  0  0  0  0  0
   10.1405   -0.9862   14.9043 H   0  0  0  0  0  0  0  0  0  0  0  0
    9.8213    0.4074   12.8917 H   0  0  0  0  0  0  0  0  0  0  0  0
   11.2682    2.3370   12.4420 H   0  0  0  0  0  0  0  0  0  0  0  0
   14.0580    3.7296   15.9147 H   0  0  0  0  0  0  0  0  0  0  0  0
   16.0411    4.8274   18.8398 H   0  0  0  0  0  0  0  0  0  0  0  0
   14.8944   -0.3913   19.0992 H   0  0  0  0  0  0  0  0  0  0  0  0
  1  2  1  0
  2  3  2  0
  3  4  1  0
  4  5  2  0
  5  6  1  0
  5  7  1  0
  7  8  2  0
  8  9  1  0
  9 10  1  0
 10 11  1  0
  9 12  1  0
 12 13  1  0
 13 14  2  0
 14 15  1  0
 15 16  1  0
 16 17  1  0
 17 18  1  0
 18 19  2  0
 19 20  1  0
 20 21  2  0
 21 22  1  0
 22 23  2  0
 23 24  1  0
 24 25  2  0
 25 26  1  0
 26 27  2  0
 21 28  1  0
 14 29  1  0
 29 30  1  0
 30 31  2  0
 31 32  1  0
 32 33  2  0
 33 34  1  0
  8  2  1  0
 34 12  2  0
 28 18  1  0
 33 29  1  0
 27 22  1  0
  1 35  1  0
  1 36  1  0
  1 37  1  0
  3 38  1  0
  4 39  1  0
  7 40  1  0
 10 41  1  0
 10 42  1  0
 11 43  1  0
 13 44  1  0
 15 45  1  0
 15 46  1  0
 16 47  1  0
 17 48  1  0
 17 49  1  0
 23 50  1  0
 24 51  1  0
 25 52  1  0
 26 53  1  0
 27 54  1  0
 28 55  1  0
 30 56  1  0
 34 57  1  0
M  END
>  <Energy>  (533) 
35.224244291286951

>  <compound_id>  (533) 
4182

>  <target_id>  (533) 
1

>  <reference_id>  (533) 
118

>  <inspiration_ids>  (533) 
[146, 118]

>  <energy_score>  (533) 
-39.616662930720366

>  <distance_score>  (533) 
1.537464051814775

>  <path>  (533) 
/opt/xchem-fragalysis-2/maxwin/BulkDock/SCRATCH/505735/C4182-P118/C4182-P118.minimised.mol

>  <scratch_subdir>  (533) 
/opt/xchem-fragalysis-2/maxwin/BulkDock/SCRATCH/505735/C4182-P118

>  <fragmenstein_runtime>  (533) 
15.967892169952393

>  <fragmenstein_outcome>  (533) 
too moved

>  <fragmenstein_mode>  (533) 
expansion

>  <fragmenstein_error>  (533) 


$$$$
C4183-P146
     RDKit          3D

 49 52  0  0  0  0  0  0  0  0999 V2000
   19.4479   -1.6979   17.5549 C   0  0  0  0  0  0  0  0  0  0  0  0
   18.9855   -1.8078   19.0175 C   0  0  0  0  0  0  0  0  0  0  0  0
   17.7714   -2.7273   19.1803 C   0  0  0  0  0  0  0  0  0  0  0  0
   17.7954   -3.7534   19.7382 O   0  0  0  0  0  0  0  0  0  0  0  0
   16.6283   -2.0424   18.3797 N   0  0  0  0  0  0  0  0  0  0  0  0
   15.3623   -2.5066   18.0359 C   0  0  0  0  0  0  0  0  0  0  0  0
   14.9350   -2.0273   16.8087 C   0  0  0  0  0  0  0  0  0  0  0  0
   13.8946   -2.6404   16.0912 C   0  0  0  0  0  0  0  0  0  0  0  0
   14.0047   -2.4407   14.6631 C   0  0  0  0  0  0  0  0  0  0  0  0
   13.0907   -2.3780   13.6918 N   0  0  0  0  0  0  0  0  0  0  0  0
   13.8575   -1.9940   12.6307 N   0  0  0  0  0  0  0  0  0  0  0  0
   15.1734   -1.8531   12.9885 C   0  0  0  0  0  0  0  0  0  0  0  0
   16.2714   -1.2138   12.2199 C   0  0  0  0  0  0  0  0  0  0  0  0
   15.9715    0.1971   11.9832 N   0  0  0  0  0  0  0  0  0  0  0  0
   16.1901    0.9880   13.2080 C   0  0  0  0  0  0  0  0  0  0  0  0
   15.2197    2.1256   13.2752 C   0  0  0  0  0  0  0  0  0  0  0  0
   15.5407    3.3647   12.8520 C   0  0  0  0  0  0  0  0  0  0  0  0
   14.5593    4.4331   12.9442 C   0  0  0  0  0  0  0  0  0  0  0  0
   13.3285    4.2266   13.4471 C   0  0  0  0  0  0  0  0  0  0  0  0
   12.9686    2.9304   13.8858 C   0  0  0  0  0  0  0  0  0  0  0  0
   11.8458    2.4266   14.3514 N   0  0  0  0  0  0  0  0  0  0  0  0
   12.0678    1.1050   14.6483 N   0  0  0  0  0  0  0  0  0  0  0  0
   13.3223    0.8602   14.3638 C   0  0  0  0  0  0  0  0  0  0  0  0
   13.9315    1.9405   13.8042 N   0  0  0  0  0  0  0  0  0  0  0  0
   15.2988   -2.2386   14.2229 N   0  0  0  0  0  0  0  0  0  0  0  0
   13.0859   -3.5632   16.7282 C   0  0  0  0  0  0  0  0  0  0  0  0
   13.4419   -3.9676   18.0245 C   0  0  0  0  0  0  0  0  0  0  0  0
   14.5970   -3.4763   18.6575 C   0  0  0  0  0  0  0  0  0  0  0  0
   14.9219   -3.9084   19.9076 O   0  0  0  0  0  0  0  0  0  0  0  0
   20.4193   -1.1952   17.5109 H   0  0  0  0  0  0  0  0  0  0  0  0
   18.7512   -1.1210   16.9404 H   0  0  0  0  0  0  0  0  0  0  0  0
   19.5522   -2.6910   17.1060 H   0  0  0  0  0  0  0  0  0  0  0  0
   18.7473   -0.8186   19.4234 H   0  0  0  0  0  0  0  0  0  0  0  0
   19.7988   -2.2214   19.6248 H   0  0  0  0  0  0  0  0  0  0  0  0
   16.9737   -1.1937   17.9574 H   0  0  0  0  0  0  0  0  0  0  0  0
   15.5492   -1.2801   16.3062 H   0  0  0  0  0  0  0  0  0  0  0  0
   13.4246   -1.8078   11.7257 H   0  0  0  0  0  0  0  0  0  0  0  0
   17.2157   -1.3080   12.7733 H   0  0  0  0  0  0  0  0  0  0  0  0
   16.4610   -1.7366   11.2842 H   0  0  0  0  0  0  0  0  0  0  0  0
   16.6062    0.5586   11.2708 H   0  0  0  0  0  0  0  0  0  0  0  0
   16.1170    0.3979   14.1293 H   0  0  0  0  0  0  0  0  0  0  0  0
   17.2226    1.3621   13.1973 H   0  0  0  0  0  0  0  0  0  0  0  0
   16.5127    3.6021   12.4311 H   0  0  0  0  0  0  0  0  0  0  0  0
   14.8523    5.4196   12.5964 H   0  0  0  0  0  0  0  0  0  0  0  0
   12.5966    5.0224   13.5185 H   0  0  0  0  0  0  0  0  0  0  0  0
   13.8500   -0.0335   14.5949 H   0  0  0  0  0  0  0  0  0  0  0  0
   12.2454   -4.0230   16.2193 H   0  0  0  0  0  0  0  0  0  0  0  0
   12.8283   -4.7046   18.5296 H   0  0  0  0  0  0  0  0  0  0  0  0
   14.3556   -4.6606   20.1429 H   0  0  0  0  0  0  0  0  0  0  0  0
  1  2  1  0
  2  3  1  0
  3  4  2  0
  3  5  1  0
  5  6  1  0
  6  7  2  0
  7  8  1  0
  8  9  1  0
  9 10  2  0
 10 11  1  0
 11 12  1  0
 12 13  1  0
 13 14  1  0
 14 15  1  0
 15 16  1  0
 16 17  2  0
 17 18  1  0
 18 19  2  0
 19 20  1  0
 20 21  2  0
 21 22  1  0
 22 23  2  0
 23 24  1  0
 12 25  2  0
  8 26  2  0
 26 27  1  0
 27 28  2  0
 28 29  1  0
 28  6  1  0
 25  9  1  0
 24 16  1  0
 24 20  1  0
  1 30  1  0
  1 31  1  0
  1 32  1  0
  2 33  1  0
  2 34  1  0
  5 35  1  0
  7 36  1  0
 11 37  1  0
 13 38  1  0
 13 39  1  0
 14 40  1  0
 15 41  1  0
 15 42  1  0
 17 43  1  0
 18 44  1  0
 19 45  1  0
 23 46  1  0
 26 47  1  0
 27 48  1  0
 29 49  1  0
M  END
>  <Energy>  (534) 
80.9943647371922

>  <compound_id>  (534) 
4183

>  <target_id>  (534) 
1

>  <reference_id>  (534) 
146

>  <inspiration_ids>  (534) 
[146, 120]

>  <energy_score>  (534) 
-19.721739648068024

>  <distance_score>  (534) 
1.9329854226797847

>  <path>  (534) 
/opt/xchem-fragalysis-2/maxwin/BulkDock/SCRATCH/505735/C4183-P146/C4183-P146.minimised.mol

>  <scratch_subdir>  (534) 
/opt/xchem-fragalysis-2/maxwin/BulkDock/SCRATCH/505735/C4183-P146

>  <fragmenstein_runtime>  (534) 
4.328771114349365

>  <fragmenstein_outcome>  (534) 
too moved

>  <fragmenstein_mode>  (534) 
expansion

>  <fragmenstein_error>  (534) 


$$$$
C4183-P120
     RDKit          3D

 49 52  0  0  0  0  0  0  0  0999 V2000
   19.6866   -1.9801   17.2253 C   0  0  0  0  0  0  0  0  0  0  0  0
   19.2703   -2.0393   18.7019 C   0  0  0  0  0  0  0  0  0  0  0  0
   17.9644   -2.8004   18.9859 C   0  0  0  0  0  0  0  0  0  0  0  0
   17.8580   -3.6208   19.8082 O   0  0  0  0  0  0  0  0  0  0  0  0
   16.9292   -2.2517   17.9799 N   0  0  0  0  0  0  0  0  0  0  0  0
   15.6234   -2.6488   17.7214 C   0  0  0  0  0  0  0  0  0  0  0  0
   15.1403   -2.1521   16.5216 C   0  0  0  0  0  0  0  0  0  0  0  0
   13.8621   -2.4298   16.0347 C   0  0  0  0  0  0  0  0  0  0  0  0
   13.6151   -1.9231   14.7079 C   0  0  0  0  0  0  0  0  0  0  0  0
   12.6115   -1.1353   14.3195 N   0  0  0  0  0  0  0  0  0  0  0  0
   13.0781   -0.6765   13.1446 N   0  0  0  0  0  0  0  0  0  0  0  0
   14.2721   -1.2438   12.8070 C   0  0  0  0  0  0  0  0  0  0  0  0
   15.0280   -1.0333   11.5459 C   0  0  0  0  0  0  0  0  0  0  0  0
   15.2438    0.3648   11.1500 N   0  0  0  0  0  0  0  0  0  0  0  0
   16.0354    1.1224   12.1317 C   0  0  0  0  0  0  0  0  0  0  0  0
   15.1265    1.9124   13.0285 C   0  0  0  0  0  0  0  0  0  0  0  0
   14.2115    2.7641   12.5159 C   0  0  0  0  0  0  0  0  0  0  0  0
   13.2697    3.4359   13.3901 C   0  0  0  0  0  0  0  0  0  0  0  0
   13.2575    3.2054   14.7151 C   0  0  0  0  0  0  0  0  0  0  0  0
   14.2066    2.3115   15.2728 C   0  0  0  0  0  0  0  0  0  0  0  0
   14.4058    1.8779   16.4959 N   0  0  0  0  0  0  0  0  0  0  0  0
   15.5039    1.0533   16.4771 N   0  0  0  0  0  0  0  0  0  0  0  0
   15.9407    0.9991   15.2395 C   0  0  0  0  0  0  0  0  0  0  0  0
   15.1320    1.7298   14.4167 N   0  0  0  0  0  0  0  0  0  0  0  0
   14.6472   -2.0115   13.7944 N   0  0  0  0  0  0  0  0  0  0  0  0
   13.0085   -3.2065   16.7955 C   0  0  0  0  0  0  0  0  0  0  0  0
   13.4847   -3.7156   18.0150 C   0  0  0  0  0  0  0  0  0  0  0  0
   14.7948   -3.4737   18.4601 C   0  0  0  0  0  0  0  0  0  0  0  0
   15.1631   -4.0930   19.6173 O   0  0  0  0  0  0  0  0  0  0  0  0
   20.7496   -1.7280   17.1523 H   0  0  0  0  0  0  0  0  0  0  0  0
   19.1393   -1.2108   16.6727 H   0  0  0  0  0  0  0  0  0  0  0  0
   19.5263   -2.9435   16.7312 H   0  0  0  0  0  0  0  0  0  0  0  0
   19.1800   -1.0282   19.1135 H   0  0  0  0  0  0  0  0  0  0  0  0
   20.0621   -2.5511   19.2624 H   0  0  0  0  0  0  0  0  0  0  0  0
   17.3348   -1.4846   17.4632 H   0  0  0  0  0  0  0  0  0  0  0  0
   15.8089   -1.5657   15.8998 H   0  0  0  0  0  0  0  0  0  0  0  0
   12.5549    0.0398   12.6570 H   0  0  0  0  0  0  0  0  0  0  0  0
   15.9995   -1.5391   11.6201 H   0  0  0  0  0  0  0  0  0  0  0  0
   14.4986   -1.5382   10.7353 H   0  0  0  0  0  0  0  0  0  0  0  0
   15.7666    0.3462   10.2738 H   0  0  0  0  0  0  0  0  0  0  0  0
   16.7389    0.4763   12.6661 H   0  0  0  0  0  0  0  0  0  0  0  0
   16.6632    1.8387   11.5851 H   0  0  0  0  0  0  0  0  0  0  0  0
   14.1266    2.9400   11.4470 H   0  0  0  0  0  0  0  0  0  0  0  0
   12.5531    4.1183   12.9422 H   0  0  0  0  0  0  0  0  0  0  0  0
   12.5437    3.6840   15.3759 H   0  0  0  0  0  0  0  0  0  0  0  0
   16.7980    0.4397   14.8997 H   0  0  0  0  0  0  0  0  0  0  0  0
   12.0110   -3.4521   16.4459 H   0  0  0  0  0  0  0  0  0  0  0  0
   12.8365   -4.3344   18.6288 H   0  0  0  0  0  0  0  0  0  0  0  0
   16.1106   -3.9156   19.7889 H   0  0  0  0  0  0  0  0  0  0  0  0
  1  2  1  0
  2  3  1  0
  3  4  2  0
  3  5  1  0
  5  6  1  0
  6  7  2  0
  7  8  1  0
  8  9  1  0
  9 10  2  0
 10 11  1  0
 11 12  1  0
 12 13  1  0
 13 14  1  0
 14 15  1  0
 15 16  1  0
 16 17  2  0
 17 18  1  0
 18 19  2  0
 19 20  1  0
 20 21  2  0
 21 22  1  0
 22 23  2  0
 23 24  1  0
 12 25  2  0
  8 26  2  0
 26 27  1  0
 27 28  2  0
 28 29  1  0
 28  6  1  0
 25  9  1  0
 24 16  1  0
 24 20  1  0
  1 30  1  0
  1 31  1  0
  1 32  1  0
  2 33  1  0
  2 34  1  0
  5 35  1  0
  7 36  1  0
 11 37  1  0
 13 38  1  0
 13 39  1  0
 14 40  1  0
 15 41  1  0
 15 42  1  0
 17 43  1  0
 18 44  1  0
 19 45  1  0
 23 46  1  0
 26 47  1  0
 27 48  1  0
 29 49  1  0
M  END
>  <Energy>  (535) 
54.052857026573577

>  <compound_id>  (535) 
4183

>  <target_id>  (535) 
1

>  <reference_id>  (535) 
120

>  <inspiration_ids>  (535) 
[146, 120]

>  <energy_score>  (535) 
-46.66324735868977

>  <distance_score>  (535) 
1.7391477620039104

>  <path>  (535) 
/opt/xchem-fragalysis-2/maxwin/BulkDock/SCRATCH/505735/C4183-P120/C4183-P120.minimised.mol

>  <scratch_subdir>  (535) 
/opt/xchem-fragalysis-2/maxwin/BulkDock/SCRATCH/505735/C4183-P120

>  <fragmenstein_runtime>  (535) 
3.7710583209991455

>  <fragmenstein_outcome>  (535) 
too moved

>  <fragmenstein_mode>  (535) 
expansion

>  <fragmenstein_error>  (535) 


$$$$
C4184-P146
     RDKit          3D

 47 50  0  0  0  0  0  0  0  0999 V2000
   21.2076   -2.3888   13.4080 C   0  0  0  0  0  0  0  0  0  0  0  0
   21.4598   -2.5012   14.9174 C   0  0  0  0  0  0  0  0  0  0  0  0
   21.6639   -3.9574   15.3403 C   0  0  0  0  0  0  0  0  0  0  0  0
   20.3441   -1.8259   15.6699 C   0  0  0  0  0  0  0  0  0  0  0  0
   20.5526   -0.6313   16.3606 C   0  0  0  0  0  0  0  0  0  0  0  0
   19.4735    0.0599   16.9040 C   0  0  0  0  0  0  0  0  0  0  0  0
   18.1728   -0.3952   16.7034 C   0  0  0  0  0  0  0  0  0  0  0  0
   17.9750   -1.5370   15.9375 C   0  0  0  0  0  0  0  0  0  0  0  0
   16.7908   -1.7172   15.1463 C   0  0  0  0  0  0  0  0  0  0  0  0
   16.0813   -2.8036   14.9515 N   0  0  0  0  0  0  0  0  0  0  0  0
   15.2203   -2.5570   13.9061 N   0  0  0  0  0  0  0  0  0  0  0  0
   15.4307   -1.3370   13.4794 C   0  0  0  0  0  0  0  0  0  0  0  0
   14.6227   -0.5511   12.5278 C   0  0  0  0  0  0  0  0  0  0  0  0
   14.3403    0.7943   13.0343 N   0  0  0  0  0  0  0  0  0  0  0  0
   13.7631    0.8188   14.3848 C   0  0  0  0  0  0  0  0  0  0  0  0
   12.4946    0.0395   14.5621 C   0  0  0  0  0  0  0  0  0  0  0  0
   11.3375    0.5819   14.1329 C   0  0  0  0  0  0  0  0  0  0  0  0
   10.1024   -0.1324   14.3252 C   0  0  0  0  0  0  0  0  0  0  0  0
   10.0697   -1.3532   14.8767 C   0  0  0  0  0  0  0  0  0  0  0  0
   11.2594   -1.9360   15.3494 C   0  0  0  0  0  0  0  0  0  0  0  0
   11.4814   -3.0654   15.9747 N   0  0  0  0  0  0  0  0  0  0  0  0
   12.7767   -3.0534   16.3973 N   0  0  0  0  0  0  0  0  0  0  0  0
   13.3201   -1.9390   15.9647 C   0  0  0  0  0  0  0  0  0  0  0  0
   12.4303   -1.2073   15.2255 N   0  0  0  0  0  0  0  0  0  0  0  0
   16.4663   -0.8029   14.1812 N   0  0  0  0  0  0  0  0  0  0  0  0
   19.0514   -2.3129   15.5377 C   0  0  0  0  0  0  0  0  0  0  0  0
   22.0670   -2.7780   12.8508 H   0  0  0  0  0  0  0  0  0  0  0  0
   21.0620   -1.3450   13.1074 H   0  0  0  0  0  0  0  0  0  0  0  0
   20.3273   -2.9569   13.0880 H   0  0  0  0  0  0  0  0  0  0  0  0
   22.3975   -1.9720   15.1333 H   0  0  0  0  0  0  0  0  0  0  0  0
   22.5361   -4.3846   14.8336 H   0  0  0  0  0  0  0  0  0  0  0  0
   21.8337   -4.0302   16.4203 H   0  0  0  0  0  0  0  0  0  0  0  0
   20.8000   -4.5845   15.0953 H   0  0  0  0  0  0  0  0  0  0  0  0
   21.5563   -0.2272   16.4735 H   0  0  0  0  0  0  0  0  0  0  0  0
   19.6471    0.9825   17.4530 H   0  0  0  0  0  0  0  0  0  0  0  0
   17.3346    0.2117   17.0338 H   0  0  0  0  0  0  0  0  0  0  0  0
   15.1756   -0.4450   11.5901 H   0  0  0  0  0  0  0  0  0  0  0  0
   13.6929   -1.0797   12.3033 H   0  0  0  0  0  0  0  0  0  0  0  0
   13.6892    1.2387   12.3877 H   0  0  0  0  0  0  0  0  0  0  0  0
   14.5058    0.5525   15.1413 H   0  0  0  0  0  0  0  0  0  0  0  0
   13.5534    1.8792   14.5752 H   0  0  0  0  0  0  0  0  0  0  0  0
   11.3001    1.5472   13.6386 H   0  0  0  0  0  0  0  0  0  0  0  0
    9.1952    0.2672   13.9020 H   0  0  0  0  0  0  0  0  0  0  0  0
    9.1454   -1.9180   14.9187 H   0  0  0  0  0  0  0  0  0  0  0  0
   14.3165   -1.6084   16.1948 H   0  0  0  0  0  0  0  0  0  0  0  0
   16.8639    0.1172   14.0576 H   0  0  0  0  0  0  0  0  0  0  0  0
   18.8665   -3.2042   14.9369 H   0  0  0  0  0  0  0  0  0  0  0  0
  1  2  1  0
  2  3  1  0
  2  4  1  0
  4  5  2  0
  5  6  1  0
  6  7  2  0
  7  8  1  0
  8  9  1  0
  9 10  2  0
 10 11  1  0
 11 12  2  0
 12 13  1  0
 13 14  1  0
 14 15  1  0
 15 16  1  0
 16 17  2  0
 17 18  1  0
 18 19  2  0
 19 20  1  0
 20 21  2  0
 21 22  1  0
 22 23  2  0
 23 24  1  0
 12 25  1  0
  8 26  2  0
 26  4  1  0
 25  9  1  0
 24 16  1  0
 24 20  1  0
  1 27  1  0
  1 28  1  0
  1 29  1  0
  2 30  1  0
  3 31  1  0
  3 32  1  0
  3 33  1  0
  5 34  1  0
  6 35  1  0
  7 36  1  0
 13 37  1  0
 13 38  1  0
 14 39  1  0
 15 40  1  0
 15 41  1  0
 17 42  1  0
 18 43  1  0
 19 44  1  0
 23 45  1  0
 25 46  1  0
 26 47  1  0
M  END
>  <Energy>  (536) 
64.790963427503002

>  <compound_id>  (536) 
4184

>  <target_id>  (536) 
1

>  <reference_id>  (536) 
146

>  <inspiration_ids>  (536) 
[146, 122]

>  <energy_score>  (536) 
-11.469012857185334

>  <distance_score>  (536) 
2.095812207414913

>  <path>  (536) 
/opt/xchem-fragalysis-2/maxwin/BulkDock/SCRATCH/505735/C4184-P146/C4184-P146.minimised.mol

>  <scratch_subdir>  (536) 
/opt/xchem-fragalysis-2/maxwin/BulkDock/SCRATCH/505735/C4184-P146

>  <fragmenstein_runtime>  (536) 
3.3712990283966064

>  <fragmenstein_outcome>  (536) 
too moved

>  <fragmenstein_mode>  (536) 
expansion

>  <fragmenstein_error>  (536) 


$$$$
C4184-P122
     RDKit          3D

 47 50  0  0  0  0  0  0  0  0999 V2000
   20.5281   -2.2167   12.9136 C   0  0  0  0  0  0  0  0  0  0  0  0
   20.8109   -3.0089   14.1917 C   0  0  0  0  0  0  0  0  0  0  0  0
   20.4403   -4.4843   14.0195 C   0  0  0  0  0  0  0  0  0  0  0  0
   20.1131   -2.3707   15.3623 C   0  0  0  0  0  0  0  0  0  0  0  0
   20.8382   -1.7331   16.3658 C   0  0  0  0  0  0  0  0  0  0  0  0
   20.1771   -1.1010   17.4138 C   0  0  0  0  0  0  0  0  0  0  0  0
   18.7856   -1.0437   17.4452 C   0  0  0  0  0  0  0  0  0  0  0  0
   18.0677   -1.5827   16.3833 C   0  0  0  0  0  0  0  0  0  0  0  0
   16.7622   -1.1002   16.0088 C   0  0  0  0  0  0  0  0  0  0  0  0
   15.8781   -1.6978   15.2374 N   0  0  0  0  0  0  0  0  0  0  0  0
   15.1243   -0.7267   14.6311 N   0  0  0  0  0  0  0  0  0  0  0  0
   15.5006    0.4336   15.1217 C   0  0  0  0  0  0  0  0  0  0  0  0
   14.8976    1.7685   14.9152 C   0  0  0  0  0  0  0  0  0  0  0  0
   14.1955    2.2565   16.1150 N   0  0  0  0  0  0  0  0  0  0  0  0
   13.4132    1.2451   16.8545 C   0  0  0  0  0  0  0  0  0  0  0  0
   12.6723    0.2234   16.0260 C   0  0  0  0  0  0  0  0  0  0  0  0
   11.9577    0.5973   14.9430 C   0  0  0  0  0  0  0  0  0  0  0  0
   11.5259   -0.4074   14.0064 C   0  0  0  0  0  0  0  0  0  0  0  0
   11.7027   -1.7185   14.2446 C   0  0  0  0  0  0  0  0  0  0  0  0
   12.2489   -2.1382   15.4665 C   0  0  0  0  0  0  0  0  0  0  0  0
   12.3497   -3.3174   16.0297 N   0  0  0  0  0  0  0  0  0  0  0  0
   13.1236   -3.1650   17.1499 N   0  0  0  0  0  0  0  0  0  0  0  0
   13.4591   -1.8963   17.2314 C   0  0  0  0  0  0  0  0  0  0  0  0
   12.8092   -1.1661   16.2721 N   0  0  0  0  0  0  0  0  0  0  0  0
   16.4797    0.2342   16.0448 N   0  0  0  0  0  0  0  0  0  0  0  0
   18.7247   -2.3189   15.4035 C   0  0  0  0  0  0  0  0  0  0  0  0
   21.1112   -2.6196   12.0781 H   0  0  0  0  0  0  0  0  0  0  0  0
   20.8030   -1.1625   13.0328 H   0  0  0  0  0  0  0  0  0  0  0  0
   19.4718   -2.2564   12.6255 H   0  0  0  0  0  0  0  0  0  0  0  0
   21.8946   -2.9724   14.3662 H   0  0  0  0  0  0  0  0  0  0  0  0
   19.3831   -4.6183   13.7658 H   0  0  0  0  0  0  0  0  0  0  0  0
   21.0322   -4.9369   13.2165 H   0  0  0  0  0  0  0  0  0  0  0  0
   20.6370   -5.0465   14.9392 H   0  0  0  0  0  0  0  0  0  0  0  0
   21.9258   -1.7403   16.3516 H   0  0  0  0  0  0  0  0  0  0  0  0
   20.7546   -0.6329   18.2079 H   0  0  0  0  0  0  0  0  0  0  0  0
   18.2932   -0.4845   18.2353 H   0  0  0  0  0  0  0  0  0  0  0  0
   15.6841    2.4900   14.6651 H   0  0  0  0  0  0  0  0  0  0  0  0
   14.2257    1.7483   14.0509 H   0  0  0  0  0  0  0  0  0  0  0  0
   13.5846    3.0267   15.8485 H   0  0  0  0  0  0  0  0  0  0  0  0
   14.0897    0.7619   17.5667 H   0  0  0  0  0  0  0  0  0  0  0  0
   12.6988    1.7955   17.4746 H   0  0  0  0  0  0  0  0  0  0  0  0
   11.8162    1.6367   14.6688 H   0  0  0  0  0  0  0  0  0  0  0  0
   11.1133   -0.0633   13.0676 H   0  0  0  0  0  0  0  0  0  0  0  0
   11.4586   -2.4939   13.5324 H   0  0  0  0  0  0  0  0  0  0  0  0
   14.1218   -1.4727   17.9685 H   0  0  0  0  0  0  0  0  0  0  0  0
   17.0025    0.9531   16.5212 H   0  0  0  0  0  0  0  0  0  0  0  0
   18.1449   -2.7386   14.5793 H   0  0  0  0  0  0  0  0  0  0  0  0
  1  2  1  0
  2  3  1  0
  2  4  1  0
  4  5  2  0
  5  6  1  0
  6  7  2  0
  7  8  1  0
  8  9  1  0
  9 10  2  0
 10 11  1  0
 11 12  2  0
 12 13  1  0
 13 14  1  0
 14 15  1  0
 15 16  1  0
 16 17  2  0
 17 18  1  0
 18 19  2  0
 19 20  1  0
 20 21  2  0
 21 22  1  0
 22 23  2  0
 23 24  1  0
 12 25  1  0
  8 26  2  0
 26  4  1  0
 25  9  1  0
 24 16  1  0
 24 20  1  0
  1 27  1  0
  1 28  1  0
  1 29  1  0
  2 30  1  0
  3 31  1  0
  3 32  1  0
  3 33  1  0
  5 34  1  0
  6 35  1  0
  7 36  1  0
 13 37  1  0
 13 38  1  0
 14 39  1  0
 15 40  1  0
 15 41  1  0
 17 42  1  0
 18 43  1  0
 19 44  1  0
 23 45  1  0
 25 46  1  0
 26 47  1  0
M  END
>  <Energy>  (537) 
66.555976733351827

>  <compound_id>  (537) 
4184

>  <target_id>  (537) 
1

>  <reference_id>  (537) 
122

>  <inspiration_ids>  (537) 
[146, 122]

>  <energy_score>  (537) 
-9.703999551339052

>  <distance_score>  (537) 
1.9298965753720114

>  <path>  (537) 
/opt/xchem-fragalysis-2/maxwin/BulkDock/SCRATCH/505735/C4184-P122/C4184-P122.minimised.mol

>  <scratch_subdir>  (537) 
/opt/xchem-fragalysis-2/maxwin/BulkDock/SCRATCH/505735/C4184-P122

>  <fragmenstein_runtime>  (537) 
3.3584604263305664

>  <fragmenstein_outcome>  (537) 
too moved

>  <fragmenstein_mode>  (537) 
expansion

>  <fragmenstein_error>  (537) 


$$$$
C4185-P146
     RDKit          3D

 56 60  0  0  0  0  0  0  0  0999 V2000
   16.6663   -0.3348   15.1888 C   0  0  0  0  0  0  0  0  0  0  0  0
   17.1738   -0.8910   16.5211 C   0  0  0  0  0  0  0  0  0  0  0  0
   16.5345   -2.2841   16.6908 C   0  0  0  0  0  0  0  0  0  0  0  0
   18.5712   -1.0976   16.4621 O   0  0  0  0  0  0  0  0  0  0  0  0
   19.0370   -1.6457   17.6082 C   0  0  0  0  0  0  0  0  0  0  0  0
   20.0133   -2.3835   17.6134 O   0  0  0  0  0  0  0  0  0  0  0  0
   18.2385   -1.4193   18.8578 C   0  0  0  0  0  0  0  0  0  0  0  0
   17.4310   -0.1254   18.8276 C   0  0  0  0  0  0  0  0  0  0  0  0
   18.2899    1.0230   19.4391 C   0  0  0  0  0  0  0  0  0  0  0  0
   18.5037    0.8485   20.9854 C   0  0  0  0  0  0  0  0  0  0  0  0
   17.2631    0.3839   21.7974 C   0  0  0  0  0  0  0  0  0  0  0  0
   17.2752   -1.0848   22.3770 C   0  0  0  0  0  0  0  0  0  0  0  0
   17.0834   -2.1725   21.3853 N   0  0  0  0  0  0  0  0  0  0  0  0
   15.8351   -2.9850   21.4849 C   0  0  0  0  0  0  0  0  0  0  0  0
   15.3158   -3.5599   20.1623 C   0  0  0  0  0  0  0  0  0  0  0  0
   15.5534   -4.7112   19.5654 N   0  0  0  0  0  0  0  0  0  0  0  0
   14.7901   -4.7687   18.3850 N   0  0  0  0  0  0  0  0  0  0  0  0
   14.1112   -3.6417   18.2508 C   0  0  0  0  0  0  0  0  0  0  0  0
   13.3175   -3.1552   17.0841 C   0  0  0  0  0  0  0  0  0  0  0  0
   12.2803   -3.8988   16.5506 C   0  0  0  0  0  0  0  0  0  0  0  0
   11.5186   -3.4246   15.4593 C   0  0  0  0  0  0  0  0  0  0  0  0
   11.7588   -2.1932   14.8704 C   0  0  0  0  0  0  0  0  0  0  0  0
   12.8022   -1.4407   15.3522 C   0  0  0  0  0  0  0  0  0  0  0  0
   13.5606   -1.9330   16.4265 C   0  0  0  0  0  0  0  0  0  0  0  0
   14.3782   -2.9198   19.3891 N   0  0  0  0  0  0  0  0  0  0  0  0
   16.1042    0.4541   20.9441 N   0  0  0  0  0  0  0  0  0  0  0  0
   14.8250    0.3099   21.3768 C   0  0  0  0  0  0  0  0  0  0  0  0
   14.0696    0.8277   23.0286 Br  0  0  0  0  0  0  0  0  0  0  0  0
   14.2203   -0.4452   20.4980 N   0  0  0  0  0  0  0  0  0  0  0  0
   15.0015   -0.5451   19.3764 N   0  0  0  0  0  0  0  0  0  0  0  0
   16.1804   -0.0762   19.6655 C   0  0  0  0  0  0  0  0  0  0  0  0
   16.9431    0.1361   17.5032 O   0  0  0  0  0  0  0  0  0  0  0  0
   15.6028   -0.0862   15.2243 H   0  0  0  0  0  0  0  0  0  0  0  0
   17.1967    0.5950   14.9488 H   0  0  0  0  0  0  0  0  0  0  0  0
   16.8576   -1.0240   14.3590 H   0  0  0  0  0  0  0  0  0  0  0  0
   15.9902   -2.3030   17.6154 H   0  0  0  0  0  0  0  0  0  0  0  0
   15.9042   -2.5577   15.8416 H   0  0  0  0  0  0  0  0  0  0  0  0
   17.2666   -3.1004   16.7204 H   0  0  0  0  0  0  0  0  0  0  0  0
   18.9509   -1.4340   19.6885 H   0  0  0  0  0  0  0  0  0  0  0  0
   17.6097   -2.3026   18.9752 H   0  0  0  0  0  0  0  0  0  0  0  0
   17.8002    1.9895   19.2515 H   0  0  0  0  0  0  0  0  0  0  0  0
   19.2612    1.0903   18.9337 H   0  0  0  0  0  0  0  0  0  0  0  0
   19.3430    0.1686   21.1720 H   0  0  0  0  0  0  0  0  0  0  0  0
   18.8320    1.8209   21.3758 H   0  0  0  0  0  0  0  0  0  0  0  0
   17.1216    1.0833   22.6299 H   0  0  0  0  0  0  0  0  0  0  0  0
   18.2459   -1.2392   22.8646 H   0  0  0  0  0  0  0  0  0  0  0  0
   16.5340   -1.1778   23.1799 H   0  0  0  0  0  0  0  0  0  0  0  0
   17.8547   -2.8431   21.4464 H   0  0  0  0  0  0  0  0  0  0  0  0
   15.0272   -2.4116   21.9495 H   0  0  0  0  0  0  0  0  0  0  0  0
   16.0302   -3.8248   22.1632 H   0  0  0  0  0  0  0  0  0  0  0  0
   12.0505   -4.8720   16.9715 H   0  0  0  0  0  0  0  0  0  0  0  0
   10.7266   -4.0402   15.0490 H   0  0  0  0  0  0  0  0  0  0  0  0
   11.1485   -1.8446   14.0425 H   0  0  0  0  0  0  0  0  0  0  0  0
   13.0329   -0.4704   14.9189 H   0  0  0  0  0  0  0  0  0  0  0  0
   14.3444   -1.2716   16.7780 H   0  0  0  0  0  0  0  0  0  0  0  0
   14.1247   -1.9583   19.5466 H   0  0  0  0  0  0  0  0  0  0  0  0
  1  2  1  0
  2  3  1  0
  2  4  1  0
  4  5  1  0
  5  6  2  0
  5  7  1  0
  7  8  1  0
  8  9  1  0
  9 10  1  0
 10 11  1  0
 11 12  1  0
 12 13  1  0
 13 14  1  0
 14 15  1  0
 15 16  2  0
 16 17  1  0
 17 18  2  0
 18 19  1  0
 19 20  2  0
 20 21  1  0
 21 22  2  0
 22 23  1  0
 23 24  2  0
 18 25  1  0
 11 26  1  0
 26 27  1  0
 27 28  1  0
 27 29  2  0
 29 30  1  0
 30 31  2  0
  8 32  1  0
 32  2  1  0
 31  8  1  0
 25 15  1  0
 31 26  1  0
 24 19  1  0
  1 33  1  0
  1 34  1  0
  1 35  1  0
  3 36  1  0
  3 37  1  0
  3 38  1  0
  7 39  1  0
  7 40  1  0
  9 41  1  0
  9 42  1  0
 10 43  1  0
 10 44  1  0
 11 45  1  0
 12 46  1  0
 12 47  1  0
 13 48  1  0
 14 49  1  0
 14 50  1  0
 20 51  1  0
 21 52  1  0
 22 53  1  0
 23 54  1  0
 24 55  1  0
 25 56  1  0
M  END
>  <Energy>  (538) 
58.372410068199216

>  <compound_id>  (538) 
4185

>  <target_id>  (538) 
1

>  <reference_id>  (538) 
146

>  <inspiration_ids>  (538) 
[146, 184]

>  <energy_score>  (538) 
-5.9143737262554055

>  <distance_score>  (538) 
2.2505219928034332

>  <path>  (538) 
/opt/xchem-fragalysis-2/maxwin/BulkDock/SCRATCH/505735/C4185-P146/C4185-P146.minimised.mol

>  <scratch_subdir>  (538) 
/opt/xchem-fragalysis-2/maxwin/BulkDock/SCRATCH/505735/C4185-P146

>  <fragmenstein_runtime>  (538) 
5.076574802398682

>  <fragmenstein_outcome>  (538) 
too moved

>  <fragmenstein_mode>  (538) 
expansion

>  <fragmenstein_error>  (538) 


$$$$
C4185-P184
     RDKit          3D

 56 60  0  0  0  0  0  0  0  0999 V2000
   16.9219   -0.0454   14.7898 C   0  0  0  0  0  0  0  0  0  0  0  0
   17.0035   -0.5559   16.2246 C   0  0  0  0  0  0  0  0  0  0  0  0
   15.7184   -1.3328   16.4038 C   0  0  0  0  0  0  0  0  0  0  0  0
   18.0925   -1.4518   16.3098 O   0  0  0  0  0  0  0  0  0  0  0  0
   18.3613   -1.9057   17.5443 C   0  0  0  0  0  0  0  0  0  0  0  0
   19.0228   -2.9248   17.7113 O   0  0  0  0  0  0  0  0  0  0  0  0
   17.7673   -1.1791   18.7120 C   0  0  0  0  0  0  0  0  0  0  0  0
   17.3344    0.2696   18.4867 C   0  0  0  0  0  0  0  0  0  0  0  0
   18.3356    1.2447   19.1835 C   0  0  0  0  0  0  0  0  0  0  0  0
   18.3116    1.1618   20.7371 C   0  0  0  0  0  0  0  0  0  0  0  0
   16.9128    1.0574   21.3994 C   0  0  0  0  0  0  0  0  0  0  0  0
   16.7329   -0.2036   22.2888 C   0  0  0  0  0  0  0  0  0  0  0  0
   16.6196   -1.4158   21.4757 N   0  0  0  0  0  0  0  0  0  0  0  0
   15.3548   -2.1534   21.6289 C   0  0  0  0  0  0  0  0  0  0  0  0
   14.9075   -2.7678   20.3397 C   0  0  0  0  0  0  0  0  0  0  0  0
   15.0096   -4.0106   19.9206 N   0  0  0  0  0  0  0  0  0  0  0  0
   14.3207   -4.1173   18.7210 N   0  0  0  0  0  0  0  0  0  0  0  0
   13.8136   -2.9368   18.4138 C   0  0  0  0  0  0  0  0  0  0  0  0
   12.9668   -2.5733   17.2562 C   0  0  0  0  0  0  0  0  0  0  0  0
   12.3982   -3.5683   16.4716 C   0  0  0  0  0  0  0  0  0  0  0  0
   11.6147   -3.2545   15.3523 C   0  0  0  0  0  0  0  0  0  0  0  0
   11.3666   -1.9319   15.0046 C   0  0  0  0  0  0  0  0  0  0  0  0
   11.9000   -0.9182   15.7786 C   0  0  0  0  0  0  0  0  0  0  0  0
   12.6787   -1.2447   16.8931 C   0  0  0  0  0  0  0  0  0  0  0  0
   14.2555   -2.0533   19.3738 N   0  0  0  0  0  0  0  0  0  0  0  0
   15.8647    1.0954   20.4054 N   0  0  0  0  0  0  0  0  0  0  0  0
   14.5551    1.3954   20.5939 C   0  0  0  0  0  0  0  0  0  0  0  0
   13.6932    1.7846   22.2426 Br  0  0  0  0  0  0  0  0  0  0  0  0
   13.9422    1.2707   19.4390 N   0  0  0  0  0  0  0  0  0  0  0  0
   14.8359    0.8058   18.5106 N   0  0  0  0  0  0  0  0  0  0  0  0
   16.0048    0.6723   19.0987 C   0  0  0  0  0  0  0  0  0  0  0  0
   17.2252    0.5686   17.0867 O   0  0  0  0  0  0  0  0  0  0  0  0
   17.8411    0.4957   14.5335 H   0  0  0  0  0  0  0  0  0  0  0  0
   16.0950    0.6609   14.6557 H   0  0  0  0  0  0  0  0  0  0  0  0
   16.8265   -0.8602   14.0632 H   0  0  0  0  0  0  0  0  0  0  0  0
   15.6852   -1.7952   17.3734 H   0  0  0  0  0  0  0  0  0  0  0  0
   15.6228   -2.1423   15.6707 H   0  0  0  0  0  0  0  0  0  0  0  0
   14.8989   -0.6324   16.2816 H   0  0  0  0  0  0  0  0  0  0  0  0
   18.5092   -1.2443   19.5150 H   0  0  0  0  0  0  0  0  0  0  0  0
   16.9286   -1.7964   19.0177 H   0  0  0  0  0  0  0  0  0  0  0  0
   18.1067    2.2772   18.8816 H   0  0  0  0  0  0  0  0  0  0  0  0
   19.3539    1.0612   18.8177 H   0  0  0  0  0  0  0  0  0  0  0  0
   18.9432    0.3249   21.0592 H   0  0  0  0  0  0  0  0  0  0  0  0
   18.8177    2.0550   21.1267 H   0  0  0  0  0  0  0  0  0  0  0  0
   16.7855    1.9450   22.0321 H   0  0  0  0  0  0  0  0  0  0  0  0
   17.6046   -0.2985   22.9482 H   0  0  0  0  0  0  0  0  0  0  0  0
   15.8782   -0.0873   22.9628 H   0  0  0  0  0  0  0  0  0  0  0  0
   17.3721   -2.0745   21.6962 H   0  0  0  0  0  0  0  0  0  0  0  0
   14.5494   -1.4963   21.9775 H   0  0  0  0  0  0  0  0  0  0  0  0
   15.4755   -2.9319   22.3908 H   0  0  0  0  0  0  0  0  0  0  0  0
   12.5567   -4.6060   16.7508 H   0  0  0  0  0  0  0  0  0  0  0  0
   11.1873   -4.0536   14.7533 H   0  0  0  0  0  0  0  0  0  0  0  0
   10.7551   -1.6988   14.1386 H   0  0  0  0  0  0  0  0  0  0  0  0
   11.7217    0.1220   15.5203 H   0  0  0  0  0  0  0  0  0  0  0  0
   13.0808   -0.4162   17.4639 H   0  0  0  0  0  0  0  0  0  0  0  0
   14.0768   -1.0595   19.3879 H   0  0  0  0  0  0  0  0  0  0  0  0
  1  2  1  0
  2  3  1  0
  2  4  1  0
  4  5  1  0
  5  6  2  0
  5  7  1  0
  7  8  1  0
  8  9  1  0
  9 10  1  0
 10 11  1  0
 11 12  1  0
 12 13  1  0
 13 14  1  0
 14 15  1  0
 15 16  2  0
 16 17  1  0
 17 18  2  0
 18 19  1  0
 19 20  2  0
 20 21  1  0
 21 22  2  0
 22 23  1  0
 23 24  2  0
 18 25  1  0
 11 26  1  0
 26 27  1  0
 27 28  1  0
 27 29  2  0
 29 30  1  0
 30 31  2  0
  8 32  1  0
 32  2  1  0
 31  8  1  0
 25 15  1  0
 31 26  1  0
 24 19  1  0
  1 33  1  0
  1 34  1  0
  1 35  1  0
  3 36  1  0
  3 37  1  0
  3 38  1  0
  7 39  1  0
  7 40  1  0
  9 41  1  0
  9 42  1  0
 10 43  1  0
 10 44  1  0
 11 45  1  0
 12 46  1  0
 12 47  1  0
 13 48  1  0
 14 49  1  0
 14 50  1  0
 20 51  1  0
 21 52  1  0
 22 53  1  0
 23 54  1  0
 24 55  1  0
 25 56  1  0
M  END
>  <Energy>  (539) 
24.049638967305054

>  <compound_id>  (539) 
4185

>  <target_id>  (539) 
1

>  <reference_id>  (539) 
184

>  <inspiration_ids>  (539) 
[146, 184]

>  <energy_score>  (539) 
-40.237144827149905

>  <distance_score>  (539) 
2.1921955045261394

>  <path>  (539) 
/opt/xchem-fragalysis-2/maxwin/BulkDock/SCRATCH/505735/C4185-P184/C4185-P184.minimised.mol

>  <scratch_subdir>  (539) 
/opt/xchem-fragalysis-2/maxwin/BulkDock/SCRATCH/505735/C4185-P184

>  <fragmenstein_runtime>  (539) 
5.379042148590088

>  <fragmenstein_outcome>  (539) 
too moved

>  <fragmenstein_mode>  (539) 
expansion

>  <fragmenstein_error>  (539) 


$$$$
C4189-P147
     RDKit          3D

 69 73  0  0  0  0  0  0  0  0999 V2000
    5.1823   -4.9218   36.8291 C   0  0  0  0  0  0  0  0  0  0  0  0
    3.8181   -5.0488   36.4493 O   0  0  0  0  0  0  0  0  0  0  0  0
    3.4081   -4.0552   35.4905 C   0  0  0  0  0  0  0  0  0  0  0  0
    3.5091   -4.6814   34.0958 C   0  0  0  0  0  0  0  0  0  0  0  0
    2.3564   -5.6512   33.8108 C   0  0  0  0  0  0  0  0  0  0  0  0
    0.9416   -5.0101   33.9248 C   0  0  0  0  0  0  0  0  0  0  0  0
    0.0414   -5.8543   34.8841 C   0  0  0  0  0  0  0  0  0  0  0  0
   -0.6743   -7.0334   34.2491 C   0  0  0  0  0  0  0  0  0  0  0  0
   -0.2595   -7.2258   32.7995 C   0  0  0  0  0  0  0  0  0  0  0  0
   -0.9240   -8.2827   32.0000 N   0  0  0  0  0  0  0  0  0  0  0  0
   -2.2298   -8.4613   32.4464 N   0  0  0  0  0  0  0  0  0  0  0  0
   -1.0480   -7.7404   30.6725 N   0  0  0  0  0  0  0  0  0  0  0  0
   -0.2096   -6.5444   30.6795 C   0  0  0  0  0  0  0  0  0  0  0  0
   -0.4338   -6.0317   32.0041 N   0  0  0  0  0  0  0  0  0  0  0  0
    0.2388   -4.8382   32.5177 C   0  0  0  0  0  0  0  0  0  0  0  0
    1.1060   -4.1099   31.4401 C   0  0  0  0  0  0  0  0  0  0  0  0
    0.2096   -3.3841   30.5504 N   0  0  0  0  0  0  0  0  0  0  0  0
    0.8425   -2.8243   29.3699 C   0  0  0  0  0  0  0  0  0  0  0  0
   -0.0352   -1.7691   28.8037 C   0  0  0  0  0  0  0  0  0  0  0  0
    0.2286   -0.4862   28.6551 N   0  0  0  0  0  0  0  0  0  0  0  0
   -0.9290    0.0191   28.0990 C   0  0  0  0  0  0  0  0  0  0  0  0
   -1.0668    1.4001   27.6588 C   0  0  0  0  0  0  0  0  0  0  0  0
   -2.1216    1.7738   26.8120 C   0  0  0  0  0  0  0  0  0  0  0  0
   -2.2618    3.0901   26.3775 C   0  0  0  0  0  0  0  0  0  0  0  0
   -1.3427    4.0507   26.7869 C   0  0  0  0  0  0  0  0  0  0  0  0
   -0.2852    3.6948   27.6239 C   0  0  0  0  0  0  0  0  0  0  0  0
   -0.1435    2.3731   28.0543 C   0  0  0  0  0  0  0  0  0  0  0  0
   -1.9108   -0.8840   27.9944 N   0  0  0  0  0  0  0  0  0  0  0  0
   -1.3009   -2.0129   28.3527 N   0  0  0  0  0  0  0  0  0  0  0  0
    1.0548   -3.6190   34.5904 C   0  0  0  0  0  0  0  0  0  0  0  0
    1.9556   -3.6455   35.8296 C   0  0  0  0  0  0  0  0  0  0  0  0
    1.9071   -2.4039   36.5298 O   0  0  0  0  0  0  0  0  0  0  0  0
    2.0353   -1.2584   35.7097 C   0  0  0  0  0  0  0  0  0  0  0  0
    5.3457   -3.9697   37.3429 H   0  0  0  0  0  0  0  0  0  0  0  0
    5.4233   -5.7347   37.5193 H   0  0  0  0  0  0  0  0  0  0  0  0
    5.8380   -4.9976   35.9569 H   0  0  0  0  0  0  0  0  0  0  0  0
    4.0797   -3.1913   35.5589 H   0  0  0  0  0  0  0  0  0  0  0  0
    4.4542   -5.2270   33.9914 H   0  0  0  0  0  0  0  0  0  0  0  0
    3.5208   -3.8902   33.3380 H   0  0  0  0  0  0  0  0  0  0  0  0
    2.4964   -6.0539   32.8060 H   0  0  0  0  0  0  0  0  0  0  0  0
    2.4509   -6.5091   34.4883 H   0  0  0  0  0  0  0  0  0  0  0  0
    0.6251   -6.2196   35.7386 H   0  0  0  0  0  0  0  0  0  0  0  0
   -0.7354   -5.2161   35.3277 H   0  0  0  0  0  0  0  0  0  0  0  0
   -1.7512   -6.8546   34.3401 H   0  0  0  0  0  0  0  0  0  0  0  0
   -0.4652   -7.9389   34.8300 H   0  0  0  0  0  0  0  0  0  0  0  0
    0.7966   -7.5027   32.8148 H   0  0  0  0  0  0  0  0  0  0  0  0
   -2.2119   -8.8692   33.3882 H   0  0  0  0  0  0  0  0  0  0  0  0
   -2.7366   -9.1701   31.9098 H   0  0  0  0  0  0  0  0  0  0  0  0
   -1.9920   -7.3604   30.6547 H   0  0  0  0  0  0  0  0  0  0  0  0
    0.8312   -6.8124   30.4882 H   0  0  0  0  0  0  0  0  0  0  0  0
   -0.5282   -5.8797   29.8777 H   0  0  0  0  0  0  0  0  0  0  0  0
   -0.6015   -4.1594   32.7351 H   0  0  0  0  0  0  0  0  0  0  0  0
    1.7388   -4.8163   30.8924 H   0  0  0  0  0  0  0  0  0  0  0  0
    1.7798   -3.3828   31.8975 H   0  0  0  0  0  0  0  0  0  0  0  0
   -0.6191   -3.9215   30.3230 H   0  0  0  0  0  0  0  0  0  0  0  0
    1.0311   -3.6066   28.6273 H   0  0  0  0  0  0  0  0  0  0  0  0
    1.8068   -2.3701   29.6272 H   0  0  0  0  0  0  0  0  0  0  0  0
   -2.8426    1.0345   26.4791 H   0  0  0  0  0  0  0  0  0  0  0  0
   -3.0932    3.3656   25.7332 H   0  0  0  0  0  0  0  0  0  0  0  0
   -1.4595    5.0809   26.4605 H   0  0  0  0  0  0  0  0  0  0  0  0
    0.4230    4.4509   27.9515 H   0  0  0  0  0  0  0  0  0  0  0  0
    0.6832    2.1076   28.7083 H   0  0  0  0  0  0  0  0  0  0  0  0
   -1.8065   -2.8888   28.2482 H   0  0  0  0  0  0  0  0  0  0  0  0
    0.0626   -3.2347   34.8645 H   0  0  0  0  0  0  0  0  0  0  0  0
    1.4395   -2.8865   33.8745 H   0  0  0  0  0  0  0  0  0  0  0  0
    1.5502   -4.3643   36.5499 H   0  0  0  0  0  0  0  0  0  0  0  0
    1.0986   -1.0452   35.1864 H   0  0  0  0  0  0  0  0  0  0  0  0
    2.8631   -1.3436   34.9997 H   0  0  0  0  0  0  0  0  0  0  0  0
    2.2410   -0.4033   36.3607 H   0  0  0  0  0  0  0  0  0  0  0  0
  1  2  1  0
  2  3  1  0
  3  4  1  0
  4  5  1  0
  5  6  1  0
  6  7  1  0
  7  8  1  0
  8  9  1  0
  9 10  1  0
 10 11  1  0
 10 12  1  0
 12 13  1  0
 13 14  1  0
 14 15  1  0
 15 16  1  0
 16 17  1  0
 17 18  1  0
 18 19  1  0
 19 20  2  0
 20 21  1  0
 21 22  1  0
 22 23  2  0
 23 24  1  0
 24 25  2  0
 25 26  1  0
 26 27  2  0
 21 28  2  0
 28 29  1  0
  6 30  1  0
 30 31  1  0
 31 32  1  0
 32 33  1  0
 31  3  1  0
 15  6  1  0
 29 19  1  0
 14  9  1  0
 27 22  1  0
  1 34  1  0
  1 35  1  0
  1 36  1  0
  3 37  1  0
  4 38  1  0
  4 39  1  0
  5 40  1  0
  5 41  1  0
  7 42  1  0
  7 43  1  0
  8 44  1  0
  8 45  1  0
  9 46  1  0
 11 47  1  0
 11 48  1  0
 12 49  1  0
 13 50  1  0
 13 51  1  0
 15 52  1  0
 16 53  1  0
 16 54  1  0
 17 55  1  0
 18 56  1  0
 18 57  1  0
 23 58  1  0
 24 59  1  0
 25 60  1  0
 26 61  1  0
 27 62  1  0
 29 63  1  0
 30 64  1  0
 30 65  1  0
 31 66  1  0
 33 67  1  0
 33 68  1  0
 33 69  1  0
M  END
>  <Energy>  (540) 
137.3247614304039

>  <compound_id>  (540) 
4189

>  <target_id>  (540) 
1

>  <reference_id>  (540) 
147

>  <inspiration_ids>  (540) 
[147, 41]

>  <energy_score>  (540) 
-55.789889486531536

>  <distance_score>  (540) 
1.1152959248671996

>  <path>  (540) 
/opt/xchem-fragalysis-2/maxwin/BulkDock/SCRATCH/505735/C4189-P147/C4189-P147.minimised.mol

>  <scratch_subdir>  (540) 
/opt/xchem-fragalysis-2/maxwin/BulkDock/SCRATCH/505735/C4189-P147

>  <fragmenstein_runtime>  (540) 
6.121604919433594

>  <fragmenstein_outcome>  (540) 
too moved

>  <fragmenstein_mode>  (540) 
expansion

>  <fragmenstein_error>  (540) 


$$$$
C4189-P41
     RDKit          3D

 69 73  0  0  0  0  0  0  0  0999 V2000
    5.3366   -4.8519   36.6863 C   0  0  0  0  0  0  0  0  0  0  0  0
    3.9622   -5.0090   36.3575 O   0  0  0  0  0  0  0  0  0  0  0  0
    3.5069   -4.0503   35.3836 C   0  0  0  0  0  0  0  0  0  0  0  0
    3.5752   -4.7153   34.0025 C   0  0  0  0  0  0  0  0  0  0  0  0
    2.4145   -5.6892   33.7584 C   0  0  0  0  0  0  0  0  0  0  0  0
    1.0030   -5.0385   33.9020 C   0  0  0  0  0  0  0  0  0  0  0  0
    0.1323   -5.8545   34.9188 C   0  0  0  0  0  0  0  0  0  0  0  0
   -0.6707   -7.0034   34.3379 C   0  0  0  0  0  0  0  0  0  0  0  0
   -0.2900   -7.2642   32.8937 C   0  0  0  0  0  0  0  0  0  0  0  0
   -1.0128   -8.3175   32.1418 N   0  0  0  0  0  0  0  0  0  0  0  0
   -2.3015   -8.4644   32.6513 N   0  0  0  0  0  0  0  0  0  0  0  0
   -1.1779   -7.7887   30.8114 N   0  0  0  0  0  0  0  0  0  0  0  0
   -0.2601   -6.6547   30.7544 C   0  0  0  0  0  0  0  0  0  0  0  0
   -0.4337   -6.0908   32.0616 N   0  0  0  0  0  0  0  0  0  0  0  0
    0.2588   -4.8899   32.5155 C   0  0  0  0  0  0  0  0  0  0  0  0
    1.0932   -4.1911   31.3884 C   0  0  0  0  0  0  0  0  0  0  0  0
    0.1859   -3.4612   30.5075 N   0  0  0  0  0  0  0  0  0  0  0  0
    0.8053   -2.9232   29.3055 C   0  0  0  0  0  0  0  0  0  0  0  0
   -0.0646   -1.8713   28.7146 C   0  0  0  0  0  0  0  0  0  0  0  0
    0.1987   -0.5868   28.5723 N   0  0  0  0  0  0  0  0  0  0  0  0
   -0.9442   -0.0848   27.9818 C   0  0  0  0  0  0  0  0  0  0  0  0
   -1.0771    1.2943   27.5373 C   0  0  0  0  0  0  0  0  0  0  0  0
   -2.1456    1.6698   26.7081 C   0  0  0  0  0  0  0  0  0  0  0  0
   -2.2759    2.9842   26.2650 C   0  0  0  0  0  0  0  0  0  0  0  0
   -1.3380    3.9381   26.6498 C   0  0  0  0  0  0  0  0  0  0  0  0
   -0.2718    3.5800   27.4740 C   0  0  0  0  0  0  0  0  0  0  0  0
   -0.1375    2.2609   27.9122 C   0  0  0  0  0  0  0  0  0  0  0  0
   -1.9169   -0.9914   27.8385 N   0  0  0  0  0  0  0  0  0  0  0  0
   -1.3120   -2.1191   28.2167 N   0  0  0  0  0  0  0  0  0  0  0  0
    1.1397   -3.6336   34.5336 C   0  0  0  0  0  0  0  0  0  0  0  0
    2.0606   -3.6501   35.7571 C   0  0  0  0  0  0  0  0  0  0  0  0
    2.0133   -2.4117   36.4621 O   0  0  0  0  0  0  0  0  0  0  0  0
    2.0920   -1.2620   35.6419 C   0  0  0  0  0  0  0  0  0  0  0  0
    5.5033   -3.8827   37.1660 H   0  0  0  0  0  0  0  0  0  0  0  0
    5.6128   -5.6403   37.3916 H   0  0  0  0  0  0  0  0  0  0  0  0
    5.9636   -4.9449   35.7949 H   0  0  0  0  0  0  0  0  0  0  0  0
    4.1663   -3.1747   35.4056 H   0  0  0  0  0  0  0  0  0  0  0  0
    4.5167   -5.2659   33.8917 H   0  0  0  0  0  0  0  0  0  0  0  0
    3.5731   -3.9431   33.2251 H   0  0  0  0  0  0  0  0  0  0  0  0
    2.5345   -6.1169   32.7580 H   0  0  0  0  0  0  0  0  0  0  0  0
    2.5245   -6.5332   34.4507 H   0  0  0  0  0  0  0  0  0  0  0  0
    0.7592   -6.2457   35.7304 H   0  0  0  0  0  0  0  0  0  0  0  0
   -0.5882   -5.1920   35.4185 H   0  0  0  0  0  0  0  0  0  0  0  0
   -1.7326   -6.7518   34.4331 H   0  0  0  0  0  0  0  0  0  0  0  0
   -0.5113   -7.9020   34.9456 H   0  0  0  0  0  0  0  0  0  0  0  0
    0.7552   -7.5777   32.9014 H   0  0  0  0  0  0  0  0  0  0  0  0
   -2.2490   -8.9010   33.5810 H   0  0  0  0  0  0  0  0  0  0  0  0
   -2.8641   -9.1294   32.1137 H   0  0  0  0  0  0  0  0  0  0  0  0
   -2.0924   -7.3404   30.8425 H   0  0  0  0  0  0  0  0  0  0  0  0
    0.7622   -6.9965   30.5519 H   0  0  0  0  0  0  0  0  0  0  0  0
   -0.5619   -5.9903   29.9484 H   0  0  0  0  0  0  0  0  0  0  0  0
   -0.5692   -4.1993   32.7416 H   0  0  0  0  0  0  0  0  0  0  0  0
    1.6937   -4.9200   30.8329 H   0  0  0  0  0  0  0  0  0  0  0  0
    1.7957   -3.4696   31.8107 H   0  0  0  0  0  0  0  0  0  0  0  0
   -0.6497   -3.9942   30.2932 H   0  0  0  0  0  0  0  0  0  0  0  0
    0.9845   -3.7211   28.5767 H   0  0  0  0  0  0  0  0  0  0  0  0
    1.7749   -2.4706   29.5453 H   0  0  0  0  0  0  0  0  0  0  0  0
   -2.8888    0.9363   26.4050 H   0  0  0  0  0  0  0  0  0  0  0  0
   -3.1168    3.2654   25.6357 H   0  0  0  0  0  0  0  0  0  0  0  0
   -1.4502    4.9671   26.3175 H   0  0  0  0  0  0  0  0  0  0  0  0
    0.4482    4.3319   27.7848 H   0  0  0  0  0  0  0  0  0  0  0  0
    0.6961    1.9919   28.5560 H   0  0  0  0  0  0  0  0  0  0  0  0
   -1.8143   -2.9963   28.0959 H   0  0  0  0  0  0  0  0  0  0  0  0
    0.1549   -3.2367   34.8166 H   0  0  0  0  0  0  0  0  0  0  0  0
    1.5195   -2.9179   33.7977 H   0  0  0  0  0  0  0  0  0  0  0  0
    1.6789   -4.3726   36.4861 H   0  0  0  0  0  0  0  0  0  0  0  0
    1.1383   -1.0705   35.1415 H   0  0  0  0  0  0  0  0  0  0  0  0
    2.9044   -1.3269   34.9122 H   0  0  0  0  0  0  0  0  0  0  0  0
    2.2933   -0.4032   36.2894 H   0  0  0  0  0  0  0  0  0  0  0  0
  1  2  1  0
  2  3  1  0
  3  4  1  0
  4  5  1  0
  5  6  1  0
  6  7  1  0
  7  8  1  0
  8  9  1  0
  9 10  1  0
 10 11  1  0
 10 12  1  0
 12 13  1  0
 13 14  1  0
 14 15  1  0
 15 16  1  0
 16 17  1  0
 17 18  1  0
 18 19  1  0
 19 20  2  0
 20 21  1  0
 21 22  1  0
 22 23  2  0
 23 24  1  0
 24 25  2  0
 25 26  1  0
 26 27  2  0
 21 28  2  0
 28 29  1  0
  6 30  1  0
 30 31  1  0
 31 32  1  0
 32 33  1  0
 31  3  1  0
 15  6  1  0
 29 19  1  0
 14  9  1  0
 27 22  1  0
  1 34  1  0
  1 35  1  0
  1 36  1  0
  3 37  1  0
  4 38  1  0
  4 39  1  0
  5 40  1  0
  5 41  1  0
  7 42  1  0
  7 43  1  0
  8 44  1  0
  8 45  1  0
  9 46  1  0
 11 47  1  0
 11 48  1  0
 12 49  1  0
 13 50  1  0
 13 51  1  0
 15 52  1  0
 16 53  1  0
 16 54  1  0
 17 55  1  0
 18 56  1  0
 18 57  1  0
 23 58  1  0
 24 59  1  0
 25 60  1  0
 26 61  1  0
 27 62  1  0
 29 63  1  0
 30 64  1  0
 30 65  1  0
 31 66  1  0
 33 67  1  0
 33 68  1  0
 33 69  1  0
M  END
>  <Energy>  (541) 
137.2684055668912

>  <compound_id>  (541) 
4189

>  <target_id>  (541) 
1

>  <reference_id>  (541) 
41

>  <inspiration_ids>  (541) 
[147, 41]

>  <energy_score>  (541) 
-55.84624535004298

>  <distance_score>  (541) 
1.084490690540938

>  <path>  (541) 
/opt/xchem-fragalysis-2/maxwin/BulkDock/SCRATCH/505735/C4189-P41/C4189-P41.minimised.mol

>  <scratch_subdir>  (541) 
/opt/xchem-fragalysis-2/maxwin/BulkDock/SCRATCH/505735/C4189-P41

>  <fragmenstein_runtime>  (541) 
6.906110763549805

>  <fragmenstein_outcome>  (541) 
too moved

>  <fragmenstein_mode>  (541) 
expansion

>  <fragmenstein_error>  (541) 


$$$$
C4197-P147
     RDKit          3D

 59 64  0  0  0  0  0  0  0  0999 V2000
   -1.4052    3.7072   26.7193 C   0  0  0  0  0  0  0  0  0  0  0  0
   -2.1684    2.6272   26.2859 C   0  0  0  0  0  0  0  0  0  0  0  0
   -1.9918    1.3752   26.8760 C   0  0  0  0  0  0  0  0  0  0  0  0
   -1.0736    1.1931   27.9141 C   0  0  0  0  0  0  0  0  0  0  0  0
   -0.9682   -0.0964   28.5749 C   0  0  0  0  0  0  0  0  0  0  0  0
   -1.7812   -0.6047   29.4780 N   0  0  0  0  0  0  0  0  0  0  0  0
   -1.3362   -1.8629   29.8076 N   0  0  0  0  0  0  0  0  0  0  0  0
   -0.2505   -2.1030   29.1040 C   0  0  0  0  0  0  0  0  0  0  0  0
    0.5119   -3.3735   29.0586 C   0  0  0  0  0  0  0  0  0  0  0  0
    1.2175   -3.6234   30.3142 N   0  0  0  0  0  0  0  0  0  0  0  0
    1.1332   -5.0124   30.7555 C   0  0  0  0  0  0  0  0  0  0  0  0
   -0.0920   -5.2156   31.6778 C   0  0  0  0  0  0  0  0  0  0  0  0
    0.1194   -4.6204   33.0778 C   0  0  0  0  0  0  0  0  0  0  0  0
    0.5478   -5.6370   34.1751 C   0  0  0  0  0  0  0  0  0  0  0  0
   -0.5712   -6.7144   34.2567 C   0  0  0  0  0  0  0  0  0  0  0  0
   -0.8585   -7.2585   32.8946 C   0  0  0  0  0  0  0  0  0  0  0  0
   -1.4367   -8.3884   32.5577 N   0  0  0  0  0  0  0  0  0  0  0  0
   -1.4427   -8.4799   31.1854 N   0  0  0  0  0  0  0  0  0  0  0  0
   -0.9016   -7.3845   30.7164 C   0  0  0  0  0  0  0  0  0  0  0  0
   -0.5452   -6.5842   31.7485 N   0  0  0  0  0  0  0  0  0  0  0  0
    1.8289   -6.3437   33.9471 N   0  0  0  0  0  0  0  0  0  0  0  0
    2.7018   -5.9720   35.0742 N   0  0  0  0  0  0  0  0  0  0  0  0
    2.2063   -4.6622   35.5058 C   0  0  0  0  0  0  0  0  0  0  0  0
    2.6899   -3.5015   34.6249 C   0  0  0  0  0  0  0  0  0  0  0  0
    3.6684   -3.6828   33.6337 C   0  0  0  0  0  0  0  0  0  0  0  0
    3.9129   -2.6954   32.6805 C   0  0  0  0  0  0  0  0  0  0  0  0
    3.2269   -1.4865   32.7300 C   0  0  0  0  0  0  0  0  0  0  0  0
    2.3284   -1.2465   33.7619 C   0  0  0  0  0  0  0  0  0  0  0  0
    2.0732   -2.2399   34.7112 C   0  0  0  0  0  0  0  0  0  0  0  0
    0.7594   -4.8874   35.4245 N   0  0  0  0  0  0  0  0  0  0  0  0
    0.0223   -1.0077   28.3293 N   0  0  0  0  0  0  0  0  0  0  0  0
   -0.2995    2.2793   28.3322 C   0  0  0  0  0  0  0  0  0  0  0  0
   -0.4667    3.5329   27.7364 C   0  0  0  0  0  0  0  0  0  0  0  0
   -1.5610    4.6895   26.2793 H   0  0  0  0  0  0  0  0  0  0  0  0
   -2.9154    2.7630   25.5067 H   0  0  0  0  0  0  0  0  0  0  0  0
   -2.5827    0.5355   26.5279 H   0  0  0  0  0  0  0  0  0  0  0  0
    1.2407   -3.3727   28.2427 H   0  0  0  0  0  0  0  0  0  0  0  0
   -0.2114   -4.1682   28.8391 H   0  0  0  0  0  0  0  0  0  0  0  0
    2.1803   -3.3009   30.2474 H   0  0  0  0  0  0  0  0  0  0  0  0
    2.0522   -5.2481   31.2952 H   0  0  0  0  0  0  0  0  0  0  0  0
    1.1314   -5.6909   29.8956 H   0  0  0  0  0  0  0  0  0  0  0  0
   -0.9391   -4.6785   31.2274 H   0  0  0  0  0  0  0  0  0  0  0  0
    0.7929   -3.7716   32.9876 H   0  0  0  0  0  0  0  0  0  0  0  0
   -0.8371   -4.1767   33.3957 H   0  0  0  0  0  0  0  0  0  0  0  0
   -1.4892   -6.2780   34.6652 H   0  0  0  0  0  0  0  0  0  0  0  0
   -0.2846   -7.5310   34.9314 H   0  0  0  0  0  0  0  0  0  0  0  0
   -0.7939   -7.1276   29.6750 H   0  0  0  0  0  0  0  0  0  0  0  0
    2.2503   -5.9568   33.1047 H   0  0  0  0  0  0  0  0  0  0  0  0
    2.5582   -6.6151   35.8562 H   0  0  0  0  0  0  0  0  0  0  0  0
    2.5157   -4.4554   36.5368 H   0  0  0  0  0  0  0  0  0  0  0  0
    4.2213   -4.6169   33.5647 H   0  0  0  0  0  0  0  0  0  0  0  0
    4.6535   -2.8651   31.9035 H   0  0  0  0  0  0  0  0  0  0  0  0
    3.4160   -0.7167   31.9872 H   0  0  0  0  0  0  0  0  0  0  0  0
    1.8017   -0.2972   33.8178 H   0  0  0  0  0  0  0  0  0  0  0  0
    1.3185   -2.0587   35.4750 H   0  0  0  0  0  0  0  0  0  0  0  0
    0.5267   -5.5070   36.1950 H   0  0  0  0  0  0  0  0  0  0  0  0
    0.7421   -0.9131   27.6313 H   0  0  0  0  0  0  0  0  0  0  0  0
    0.4031    2.1715   29.1543 H   0  0  0  0  0  0  0  0  0  0  0  0
    0.1074    4.3850   28.0919 H   0  0  0  0  0  0  0  0  0  0  0  0
  1  2  2  0
  2  3  1  0
  3  4  2  0
  4  5  1  0
  5  6  2  0
  6  7  1  0
  7  8  2  0
  8  9  1  0
  9 10  1  0
 10 11  1  0
 11 12  1  0
 12 13  1  0
 13 14  1  0
 14 15  1  0
 15 16  1  0
 16 17  2  0
 17 18  1  0
 18 19  2  0
 19 20  1  0
 14 21  1  0
 21 22  1  0
 22 23  1  0
 23 24  1  0
 24 25  2  0
 25 26  1  0
 26 27  2  0
 27 28  1  0
 28 29  2  0
 23 30  1  0
  8 31  1  0
  4 32  1  0
 32 33  2  0
 33  1  1  0
 31  5  1  0
 20 12  1  0
 29 24  1  0
 30 14  1  0
 20 16  1  0
  1 34  1  0
  2 35  1  0
  3 36  1  0
  9 37  1  0
  9 38  1  0
 10 39  1  0
 11 40  1  0
 11 41  1  0
 12 42  1  0
 13 43  1  0
 13 44  1  0
 15 45  1  0
 15 46  1  0
 19 47  1  0
 21 48  1  0
 22 49  1  0
 23 50  1  0
 25 51  1  0
 26 52  1  0
 27 53  1  0
 28 54  1  0
 29 55  1  0
 30 56  1  0
 31 57  1  0
 32 58  1  0
 33 59  1  0
M  END
>  <Energy>  (542) 
61.873716378483984

>  <compound_id>  (542) 
4197

>  <target_id>  (542) 
1

>  <reference_id>  (542) 
147

>  <inspiration_ids>  (542) 
[147, 128]

>  <energy_score>  (542) 
-23.66291603974628

>  <distance_score>  (542) 
1.3451207615290044

>  <path>  (542) 
/opt/xchem-fragalysis-2/maxwin/BulkDock/SCRATCH/505735/C4197-P147/C4197-P147.minimised.mol

>  <scratch_subdir>  (542) 
/opt/xchem-fragalysis-2/maxwin/BulkDock/SCRATCH/505735/C4197-P147

>  <fragmenstein_runtime>  (542) 
12.835348844528198

>  <fragmenstein_outcome>  (542) 
too moved

>  <fragmenstein_mode>  (542) 
expansion

>  <fragmenstein_error>  (542) 


$$$$
C4197-P128
     RDKit          3D

 59 64  0  0  0  0  0  0  0  0999 V2000
   -1.4846    3.5763   26.6374 C   0  0  0  0  0  0  0  0  0  0  0  0
   -2.2397    2.4763   26.2404 C   0  0  0  0  0  0  0  0  0  0  0  0
   -1.9854    1.2231   26.7988 C   0  0  0  0  0  0  0  0  0  0  0  0
   -0.9875    1.0562   27.7638 C   0  0  0  0  0  0  0  0  0  0  0  0
   -0.7526   -0.2563   28.3488 C   0  0  0  0  0  0  0  0  0  0  0  0
   -1.6333   -1.0914   28.8604 N   0  0  0  0  0  0  0  0  0  0  0  0
   -0.9684   -2.2163   29.3016 N   0  0  0  0  0  0  0  0  0  0  0  0
    0.3125   -2.0548   29.0433 C   0  0  0  0  0  0  0  0  0  0  0  0
    1.4472   -2.9805   29.3150 C   0  0  0  0  0  0  0  0  0  0  0  0
    1.3441   -3.6101   30.6290 N   0  0  0  0  0  0  0  0  0  0  0  0
    0.7000   -4.9138   30.5792 C   0  0  0  0  0  0  0  0  0  0  0  0
    0.1972   -5.3810   31.9563 C   0  0  0  0  0  0  0  0  0  0  0  0
    1.3039   -5.7490   32.9451 C   0  0  0  0  0  0  0  0  0  0  0  0
    0.7216   -5.9562   34.3776 C   0  0  0  0  0  0  0  0  0  0  0  0
   -0.5541   -6.8820   34.3611 C   0  0  0  0  0  0  0  0  0  0  0  0
   -0.9730   -7.2853   32.9914 C   0  0  0  0  0  0  0  0  0  0  0  0
   -1.6266   -8.3556   32.6063 N   0  0  0  0  0  0  0  0  0  0  0  0
   -1.6050   -8.3967   31.2345 N   0  0  0  0  0  0  0  0  0  0  0  0
   -0.9634   -7.3350   30.8167 C   0  0  0  0  0  0  0  0  0  0  0  0
   -0.6243   -6.5748   31.8792 N   0  0  0  0  0  0  0  0  0  0  0  0
    1.7639   -6.5103   35.2555 N   0  0  0  0  0  0  0  0  0  0  0  0
    2.5032   -5.3568   35.7750 N   0  0  0  0  0  0  0  0  0  0  0  0
    1.6992   -4.1577   35.5226 C   0  0  0  0  0  0  0  0  0  0  0  0
    2.3389   -3.1628   34.5580 C   0  0  0  0  0  0  0  0  0  0  0  0
    3.6239   -3.3455   34.0294 C   0  0  0  0  0  0  0  0  0  0  0  0
    4.1022   -2.5071   33.0226 C   0  0  0  0  0  0  0  0  0  0  0  0
    3.3315   -1.4434   32.5605 C   0  0  0  0  0  0  0  0  0  0  0  0
    2.0820   -1.2067   33.1141 C   0  0  0  0  0  0  0  0  0  0  0  0
    1.5948   -2.0570   34.1067 C   0  0  0  0  0  0  0  0  0  0  0  0
    0.4238   -4.6700   35.0161 N   0  0  0  0  0  0  0  0  0  0  0  0
    0.4818   -0.8397   28.4357 N   0  0  0  0  0  0  0  0  0  0  0  0
   -0.2331    2.1703   28.1551 C   0  0  0  0  0  0  0  0  0  0  0  0
   -0.4834    3.4259   27.5952 C   0  0  0  0  0  0  0  0  0  0  0  0
   -1.6952    4.5549   26.2129 H   0  0  0  0  0  0  0  0  0  0  0  0
   -3.0351    2.5937   25.5076 H   0  0  0  0  0  0  0  0  0  0  0  0
   -2.5654    0.3638   26.4716 H   0  0  0  0  0  0  0  0  0  0  0  0
    2.3789   -2.4008   29.2994 H   0  0  0  0  0  0  0  0  0  0  0  0
    1.5396   -3.7204   28.5110 H   0  0  0  0  0  0  0  0  0  0  0  0
    2.2531   -3.6614   31.0846 H   0  0  0  0  0  0  0  0  0  0  0  0
    1.3908   -5.6517   30.1520 H   0  0  0  0  0  0  0  0  0  0  0  0
   -0.1632   -4.8534   29.9049 H   0  0  0  0  0  0  0  0  0  0  0  0
   -0.4541   -4.5977   32.3671 H   0  0  0  0  0  0  0  0  0  0  0  0
    1.7871   -6.6802   32.6240 H   0  0  0  0  0  0  0  0  0  0  0  0
    2.1007   -5.0148   32.9026 H   0  0  0  0  0  0  0  0  0  0  0  0
   -1.4024   -6.3876   34.8504 H   0  0  0  0  0  0  0  0  0  0  0  0
   -0.3738   -7.7945   34.9435 H   0  0  0  0  0  0  0  0  0  0  0  0
   -0.7560   -7.0969   29.7871 H   0  0  0  0  0  0  0  0  0  0  0  0
    1.3085   -7.0173   36.0213 H   0  0  0  0  0  0  0  0  0  0  0  0
    2.6866   -5.4315   36.7771 H   0  0  0  0  0  0  0  0  0  0  0  0
    1.5312   -3.6263   36.4680 H   0  0  0  0  0  0  0  0  0  0  0  0
    4.2439   -4.1779   34.3553 H   0  0  0  0  0  0  0  0  0  0  0  0
    5.0915   -2.6792   32.6055 H   0  0  0  0  0  0  0  0  0  0  0  0
    3.7142   -0.7890   31.7826 H   0  0  0  0  0  0  0  0  0  0  0  0
    1.4696   -0.3822   32.7593 H   0  0  0  0  0  0  0  0  0  0  0  0
    0.5897   -1.8898   34.4917 H   0  0  0  0  0  0  0  0  0  0  0  0
   -0.1488   -4.8561   35.8339 H   0  0  0  0  0  0  0  0  0  0  0  0
    1.3391   -0.4525   28.0769 H   0  0  0  0  0  0  0  0  0  0  0  0
    0.5285    2.0829   28.9248 H   0  0  0  0  0  0  0  0  0  0  0  0
    0.0827    4.2936   27.9241 H   0  0  0  0  0  0  0  0  0  0  0  0
  1  2  2  0
  2  3  1  0
  3  4  2  0
  4  5  1  0
  5  6  2  0
  6  7  1  0
  7  8  2  0
  8  9  1  0
  9 10  1  0
 10 11  1  0
 11 12  1  0
 12 13  1  0
 13 14  1  0
 14 15  1  0
 15 16  1  0
 16 17  2  0
 17 18  1  0
 18 19  2  0
 19 20  1  0
 14 21  1  0
 21 22  1  0
 22 23  1  0
 23 24  1  0
 24 25  2  0
 25 26  1  0
 26 27  2  0
 27 28  1  0
 28 29  2  0
 23 30  1  0
  8 31  1  0
  4 32  1  0
 32 33  2  0
 33  1  1  0
 31  5  1  0
 20 12  1  0
 29 24  1  0
 30 14  1  0
 20 16  1  0
  1 34  1  0
  2 35  1  0
  3 36  1  0
  9 37  1  0
  9 38  1  0
 10 39  1  0
 11 40  1  0
 11 41  1  0
 12 42  1  0
 13 43  1  0
 13 44  1  0
 15 45  1  0
 15 46  1  0
 19 47  1  0
 21 48  1  0
 22 49  1  0
 23 50  1  0
 25 51  1  0
 26 52  1  0
 27 53  1  0
 28 54  1  0
 29 55  1  0
 30 56  1  0
 31 57  1  0
 32 58  1  0
 33 59  1  0
M  END
>  <Energy>  (543) 
59.824932107272183

>  <compound_id>  (543) 
4197

>  <target_id>  (543) 
1

>  <reference_id>  (543) 
128

>  <inspiration_ids>  (543) 
[147, 128]

>  <energy_score>  (543) 
-25.711700310956616

>  <distance_score>  (543) 
1.38630656980577

>  <path>  (543) 
/opt/xchem-fragalysis-2/maxwin/BulkDock/SCRATCH/505735/C4197-P128/C4197-P128.minimised.mol

>  <scratch_subdir>  (543) 
/opt/xchem-fragalysis-2/maxwin/BulkDock/SCRATCH/505735/C4197-P128

>  <fragmenstein_runtime>  (543) 
12.410991668701172

>  <fragmenstein_outcome>  (543) 
too moved

>  <fragmenstein_mode>  (543) 
expansion

>  <fragmenstein_error>  (543) 


$$$$
C4200-P147
     RDKit          3D

 78 84  0  0  0  0  0  0  0  0999 V2000
   -3.2375   -1.8550   35.0200 N   0  0  0  0  0  0  0  0  0  0  0  0
   -2.0582   -2.3000   35.7566 C   0  0  0  0  0  0  0  0  0  0  0  0
   -1.3992   -1.1718   36.4421 C   0  0  0  0  0  0  0  0  0  0  0  0
   -2.0572   -0.6171   37.5092 O   0  0  0  0  0  0  0  0  0  0  0  0
   -1.1711    0.2839   38.0092 C   0  0  0  0  0  0  0  0  0  0  0  0
   -0.0168    0.3362   37.3851 N   0  0  0  0  0  0  0  0  0  0  0  0
   -0.1750   -0.5435   36.3222 C   0  0  0  0  0  0  0  0  0  0  0  0
    0.9166   -0.8570   35.3981 C   0  0  0  0  0  0  0  0  0  0  0  0
    0.7941   -0.9818   34.2040 N   0  0  0  0  0  0  0  0  0  0  0  0
   -0.3203   -0.5628   33.3660 C   0  0  0  0  0  0  0  0  0  0  0  0
   -0.5056   -1.5382   32.1909 C   0  0  0  0  0  0  0  0  0  0  0  0
    0.7449   -1.6966   31.4296 N   0  0  0  0  0  0  0  0  0  0  0  0
    0.6770   -2.5001   30.2113 C   0  0  0  0  0  0  0  0  0  0  0  0
    0.1862   -3.8431   30.4731 N   0  0  0  0  0  0  0  0  0  0  0  0
    1.0419   -4.6397   31.3186 C   0  0  0  0  0  0  0  0  0  0  0  0
    0.2727   -5.4856   32.2937 C   0  0  0  0  0  0  0  0  0  0  0  0
    0.1915   -5.2006   33.6115 C   0  0  0  0  0  0  0  0  0  0  0  0
   -0.4848   -6.1134   34.5173 C   0  0  0  0  0  0  0  0  0  0  0  0
   -1.0781   -7.2322   34.0638 C   0  0  0  0  0  0  0  0  0  0  0  0
   -1.0560   -7.5164   32.6733 C   0  0  0  0  0  0  0  0  0  0  0  0
   -1.5784   -8.4791   31.9472 N   0  0  0  0  0  0  0  0  0  0  0  0
   -1.2290   -8.2618   30.6382 N   0  0  0  0  0  0  0  0  0  0  0  0
   -0.5160   -7.1634   30.5955 C   0  0  0  0  0  0  0  0  0  0  0  0
   -0.3699   -6.6420   31.8478 N   0  0  0  0  0  0  0  0  0  0  0  0
   -0.1982   -1.7897   29.2307 C   0  0  0  0  0  0  0  0  0  0  0  0
   -1.4402   -2.0648   28.8969 N   0  0  0  0  0  0  0  0  0  0  0  0
   -1.9284   -0.9871   28.1980 N   0  0  0  0  0  0  0  0  0  0  0  0
   -0.9938   -0.0573   28.1389 C   0  0  0  0  0  0  0  0  0  0  0  0
   -1.1230    1.2981   27.6112 C   0  0  0  0  0  0  0  0  0  0  0  0
   -2.1271    1.5804   26.6780 C   0  0  0  0  0  0  0  0  0  0  0  0
   -2.3147    2.8694   26.1805 C   0  0  0  0  0  0  0  0  0  0  0  0
   -1.4894    3.9010   26.6132 C   0  0  0  0  0  0  0  0  0  0  0  0
   -0.4819    3.6424   27.5402 C   0  0  0  0  0  0  0  0  0  0  0  0
   -0.2974    2.3481   28.0364 C   0  0  0  0  0  0  0  0  0  0  0  0
    0.1413   -0.5733   28.7028 N   0  0  0  0  0  0  0  0  0  0  0  0
    2.1928   -0.9650   36.3098 N   0  0  0  0  0  0  0  0  0  0  0  0
    3.5055   -1.1377   35.9822 C   0  0  0  0  0  0  0  0  0  0  0  0
    4.4548   -0.2811   36.3941 C   0  0  0  0  0  0  0  0  0  0  0  0
    5.6427   -0.1493   35.7225 N   0  0  0  0  0  0  0  0  0  0  0  0
    5.8962   -0.7524   34.5088 C   0  0  0  0  0  0  0  0  0  0  0  0
    6.8743   -0.4566   33.8319 O   0  0  0  0  0  0  0  0  0  0  0  0
    4.9539   -1.8182   34.0925 C   0  0  0  0  0  0  0  0  0  0  0  0
    5.2353   -2.6055   32.9748 C   0  0  0  0  0  0  0  0  0  0  0  0
    4.5054   -3.7680   32.7534 C   0  0  0  0  0  0  0  0  0  0  0  0
    3.5281   -4.1524   33.6663 C   0  0  0  0  0  0  0  0  0  0  0  0
    3.1767   -3.3045   34.7179 C   0  0  0  0  0  0  0  0  0  0  0  0
    3.8605   -2.0987   34.9148 C   0  0  0  0  0  0  0  0  0  0  0  0
   -3.9283   -1.5266   35.6923 H   0  0  0  0  0  0  0  0  0  0  0  0
   -3.6376   -2.6956   34.5857 H   0  0  0  0  0  0  0  0  0  0  0  0
   -1.3646   -2.7870   35.0655 H   0  0  0  0  0  0  0  0  0  0  0  0
   -2.3449   -3.0536   36.4972 H   0  0  0  0  0  0  0  0  0  0  0  0
   -1.4907    0.8489   38.8740 H   0  0  0  0  0  0  0  0  0  0  0  0
   -0.0790    0.4268   32.9566 H   0  0  0  0  0  0  0  0  0  0  0  0
   -1.2649   -0.4414   33.8942 H   0  0  0  0  0  0  0  0  0  0  0  0
   -1.3102   -1.1478   31.5590 H   0  0  0  0  0  0  0  0  0  0  0  0
   -0.8321   -2.5006   32.5967 H   0  0  0  0  0  0  0  0  0  0  0  0
    1.4787   -1.9992   32.0659 H   0  0  0  0  0  0  0  0  0  0  0  0
    1.6809   -2.5625   29.7724 H   0  0  0  0  0  0  0  0  0  0  0  0
   -0.7630   -3.7478   30.8212 H   0  0  0  0  0  0  0  0  0  0  0  0
    1.7335   -4.0128   31.8761 H   0  0  0  0  0  0  0  0  0  0  0  0
    1.6814   -5.2754   30.6943 H   0  0  0  0  0  0  0  0  0  0  0  0
    0.6145   -4.2950   34.0298 H   0  0  0  0  0  0  0  0  0  0  0  0
   -0.4979   -5.8711   35.5760 H   0  0  0  0  0  0  0  0  0  0  0  0
   -1.5785   -7.9271   34.7287 H   0  0  0  0  0  0  0  0  0  0  0  0
   -0.1146   -6.6925   29.7150 H   0  0  0  0  0  0  0  0  0  0  0  0
   -2.7706    0.7818   26.3252 H   0  0  0  0  0  0  0  0  0  0  0  0
   -3.1132    3.0663   25.4684 H   0  0  0  0  0  0  0  0  0  0  0  0
   -1.6468    4.9098   26.2394 H   0  0  0  0  0  0  0  0  0  0  0  0
    0.1442    4.4569   27.8956 H   0  0  0  0  0  0  0  0  0  0  0  0
    0.4743    2.1922   28.7836 H   0  0  0  0  0  0  0  0  0  0  0  0
    1.0087   -0.0859   28.8543 H   0  0  0  0  0  0  0  0  0  0  0  0
    1.9188   -0.8841   37.2859 H   0  0  0  0  0  0  0  0  0  0  0  0
    4.2691    0.4647   37.1612 H   0  0  0  0  0  0  0  0  0  0  0  0
    6.2928    0.5827   35.9854 H   0  0  0  0  0  0  0  0  0  0  0  0
    6.0734   -2.3555   32.3274 H   0  0  0  0  0  0  0  0  0  0  0  0
    4.7665   -4.4101   31.9174 H   0  0  0  0  0  0  0  0  0  0  0  0
    3.0401   -5.1159   33.5589 H   0  0  0  0  0  0  0  0  0  0  0  0
    2.3884   -3.5965   35.4060 H   0  0  0  0  0  0  0  0  0  0  0  0
  1  2  1  0
  2  3  1  0
  3  4  1  0
  4  5  1  0
  5  6  2  0
  6  7  1  0
  7  8  1  0
  8  9  2  3
  9 10  1  0
 10 11  1  0
 11 12  1  0
 12 13  1  0
 13 14  1  0
 14 15  1  0
 15 16  1  0
 16 17  2  0
 17 18  1  0
 18 19  2  0
 19 20  1  0
 20 21  2  0
 21 22  1  0
 22 23  2  0
 23 24  1  0
 13 25  1  0
 25 26  2  0
 26 27  1  0
 27 28  2  0
 28 29  1  0
 29 30  2  0
 30 31  1  0
 31 32  2  0
 32 33  1  0
 33 34  2  0
 28 35  1  0
  8 36  1  0
 36 37  1  0
 37 38  2  0
 38 39  1  0
 39 40  1  0
 40 41  2  0
 40 42  1  0
 42 43  2  0
 43 44  1  0
 44 45  2  0
 45 46  1  0
 46 47  2  0
  7  3  2  0
 24 16  1  0
 35 25  1  0
 47 37  1  0
 24 20  1  0
 34 29  1  0
 47 42  1  0
  1 48  1  0
  1 49  1  0
  2 50  1  0
  2 51  1  0
  5 52  1  0
 10 53  1  0
 10 54  1  0
 11 55  1  0
 11 56  1  0
 12 57  1  0
 13 58  1  0
 14 59  1  0
 15 60  1  0
 15 61  1  0
 17 62  1  0
 18 63  1  0
 19 64  1  0
 23 65  1  0
 30 66  1  0
 31 67  1  0
 32 68  1  0
 33 69  1  0
 34 70  1  0
 35 71  1  0
 36 72  1  0
 38 73  1  0
 39 74  1  0
 43 75  1  0
 44 76  1  0
 45 77  1  0
 46 78  1  0
M  END
>  <Energy>  (544) 
82.81153819519426

>  <compound_id>  (544) 
4200

>  <target_id>  (544) 
1

>  <reference_id>  (544) 
147

>  <inspiration_ids>  (544) 
[147, 132]

>  <energy_score>  (544) 
-89.84632165134559

>  <distance_score>  (544) 
0.9321628598834578

>  <path>  (544) 
/opt/xchem-fragalysis-2/maxwin/BulkDock/SCRATCH/505735/C4200-P147/C4200-P147.minimised.mol

>  <scratch_subdir>  (544) 
/opt/xchem-fragalysis-2/maxwin/BulkDock/SCRATCH/505735/C4200-P147

>  <fragmenstein_runtime>  (544) 
24.802650213241577

>  <fragmenstein_outcome>  (544) 
acceptable

>  <fragmenstein_mode>  (544) 
expansion

>  <fragmenstein_error>  (544) 


$$$$
C4200-P132
     RDKit          3D

 78 84  0  0  0  0  0  0  0  0999 V2000
   -3.1746   -0.1331   35.3880 N   0  0  0  0  0  0  0  0  0  0  0  0
   -3.2762   -1.5767   35.6104 C   0  0  0  0  0  0  0  0  0  0  0  0
   -2.3084   -2.0427   36.6292 C   0  0  0  0  0  0  0  0  0  0  0  0
   -2.8074   -2.5932   37.7793 O   0  0  0  0  0  0  0  0  0  0  0  0
   -1.7018   -2.9663   38.4785 C   0  0  0  0  0  0  0  0  0  0  0  0
   -0.5519   -2.7025   37.8952 N   0  0  0  0  0  0  0  0  0  0  0  0
   -0.9307   -2.0925   36.7053 C   0  0  0  0  0  0  0  0  0  0  0  0
    0.0288   -1.6092   35.7280 C   0  0  0  0  0  0  0  0  0  0  0  0
   -0.3432   -1.1284   34.6799 N   0  0  0  0  0  0  0  0  0  0  0  0
    0.4643   -0.6671   33.5674 C   0  0  0  0  0  0  0  0  0  0  0  0
    0.0100   -1.3967   32.2823 C   0  0  0  0  0  0  0  0  0  0  0  0
    1.1562   -1.7285   31.4066 N   0  0  0  0  0  0  0  0  0  0  0  0
    0.7900   -2.5186   30.2236 C   0  0  0  0  0  0  0  0  0  0  0  0
    0.1202   -3.7390   30.6404 N   0  0  0  0  0  0  0  0  0  0  0  0
    0.9964   -4.7636   31.1605 C   0  0  0  0  0  0  0  0  0  0  0  0
    0.2812   -5.5545   32.2212 C   0  0  0  0  0  0  0  0  0  0  0  0
    0.2072   -5.1621   33.5116 C   0  0  0  0  0  0  0  0  0  0  0  0
   -0.4459   -6.0044   34.5011 C   0  0  0  0  0  0  0  0  0  0  0  0
   -1.0381   -7.1606   34.1505 C   0  0  0  0  0  0  0  0  0  0  0  0
   -1.0376   -7.5503   32.7868 C   0  0  0  0  0  0  0  0  0  0  0  0
   -1.5807   -8.5583   32.1424 N   0  0  0  0  0  0  0  0  0  0  0  0
   -1.2420   -8.4519   30.8191 N   0  0  0  0  0  0  0  0  0  0  0  0
   -0.5187   -7.3703   30.6858 C   0  0  0  0  0  0  0  0  0  0  0  0
   -0.3612   -6.7459   31.8863 N   0  0  0  0  0  0  0  0  0  0  0  0
   -0.0807   -1.7238   29.3088 C   0  0  0  0  0  0  0  0  0  0  0  0
   -1.2496   -2.0562   28.8110 N   0  0  0  0  0  0  0  0  0  0  0  0
   -1.7307   -0.9683   28.1270 N   0  0  0  0  0  0  0  0  0  0  0  0
   -0.8566    0.0164   28.2144 C   0  0  0  0  0  0  0  0  0  0  0  0
   -0.9999    1.3713   27.6875 C   0  0  0  0  0  0  0  0  0  0  0  0
   -1.9611    1.6244   26.7009 C   0  0  0  0  0  0  0  0  0  0  0  0
   -2.1690    2.9073   26.1968 C   0  0  0  0  0  0  0  0  0  0  0  0
   -1.4021    3.9634   26.6731 C   0  0  0  0  0  0  0  0  0  0  0  0
   -0.4345    3.7343   27.6492 C   0  0  0  0  0  0  0  0  0  0  0  0
   -0.2316    2.4455   28.1534 C   0  0  0  0  0  0  0  0  0  0  0  0
    0.2224   -0.4495   28.9151 N   0  0  0  0  0  0  0  0  0  0  0  0
    1.4849   -1.8250   36.2982 N   0  0  0  0  0  0  0  0  0  0  0  0
    2.6983   -1.4462   35.8016 C   0  0  0  0  0  0  0  0  0  0  0  0
    3.1964   -0.2121   35.9853 C   0  0  0  0  0  0  0  0  0  0  0  0
    4.2655    0.2585   35.2731 N   0  0  0  0  0  0  0  0  0  0  0  0
    4.8446   -0.4205   34.2275 C   0  0  0  0  0  0  0  0  0  0  0  0
    5.7173    0.0837   33.5310 O   0  0  0  0  0  0  0  0  0  0  0  0
    4.3538   -1.7991   33.9853 C   0  0  0  0  0  0  0  0  0  0  0  0
    4.8674   -2.5410   32.9203 C   0  0  0  0  0  0  0  0  0  0  0  0
    4.4767   -3.8658   32.7536 C   0  0  0  0  0  0  0  0  0  0  0  0
    3.6120   -4.4566   33.6720 C   0  0  0  0  0  0  0  0  0  0  0  0
    3.0676   -3.6995   34.7105 C   0  0  0  0  0  0  0  0  0  0  0  0
    3.3900   -2.3443   34.8463 C   0  0  0  0  0  0  0  0  0  0  0  0
   -3.7925    0.1054   34.6169 H   0  0  0  0  0  0  0  0  0  0  0  0
   -2.2256    0.0398   35.0395 H   0  0  0  0  0  0  0  0  0  0  0  0
   -3.0958   -2.0959   34.6637 H   0  0  0  0  0  0  0  0  0  0  0  0
   -4.2995   -1.8120   35.9213 H   0  0  0  0  0  0  0  0  0  0  0  0
   -1.8780   -3.4440   39.4333 H   0  0  0  0  0  0  0  0  0  0  0  0
    1.5281   -0.8147   33.7141 H   0  0  0  0  0  0  0  0  0  0  0  0
    0.3237    0.4124   33.4386 H   0  0  0  0  0  0  0  0  0  0  0  0
   -0.7023   -0.7485   31.7590 H   0  0  0  0  0  0  0  0  0  0  0  0
   -0.5320   -2.3047   32.5680 H   0  0  0  0  0  0  0  0  0  0  0  0
    1.8117   -2.2771   31.9564 H   0  0  0  0  0  0  0  0  0  0  0  0
    1.7011   -2.7622   29.6619 H   0  0  0  0  0  0  0  0  0  0  0  0
   -0.4248   -4.0734   29.8409 H   0  0  0  0  0  0  0  0  0  0  0  0
    1.8921   -4.3311   31.6089 H   0  0  0  0  0  0  0  0  0  0  0  0
    1.3772   -5.3967   30.3516 H   0  0  0  0  0  0  0  0  0  0  0  0
    0.5930   -4.2043   33.8369 H   0  0  0  0  0  0  0  0  0  0  0  0
   -0.4595   -5.6647   35.5332 H   0  0  0  0  0  0  0  0  0  0  0  0
   -1.5312   -7.8006   34.8738 H   0  0  0  0  0  0  0  0  0  0  0  0
   -0.1114   -6.9875   29.7722 H   0  0  0  0  0  0  0  0  0  0  0  0
   -2.5569    0.8066   26.3111 H   0  0  0  0  0  0  0  0  0  0  0  0
   -2.9384    3.0801   25.4473 H   0  0  0  0  0  0  0  0  0  0  0  0
   -1.5749    4.9685   26.2961 H   0  0  0  0  0  0  0  0  0  0  0  0
    0.1428    4.5693   28.0390 H   0  0  0  0  0  0  0  0  0  0  0  0
    0.5078    2.3161   28.9371 H   0  0  0  0  0  0  0  0  0  0  0  0
    1.0390    0.0709   29.1918 H   0  0  0  0  0  0  0  0  0  0  0  0
    1.4319   -2.3360   37.1798 H   0  0  0  0  0  0  0  0  0  0  0  0
    2.7247    0.5009   36.6556 H   0  0  0  0  0  0  0  0  0  0  0  0
    4.5911    1.2085   35.4131 H   0  0  0  0  0  0  0  0  0  0  0  0
    5.5964   -2.0975   32.2448 H   0  0  0  0  0  0  0  0  0  0  0  0
    4.9008   -4.4519   31.9421 H   0  0  0  0  0  0  0  0  0  0  0  0
    3.3555   -5.5090   33.5819 H   0  0  0  0  0  0  0  0  0  0  0  0
    2.3791   -4.1726   35.4069 H   0  0  0  0  0  0  0  0  0  0  0  0
  1  2  1  0
  2  3  1  0
  3  4  1  0
  4  5  1  0
  5  6  2  0
  6  7  1  0
  7  8  1  0
  8  9  2  3
  9 10  1  0
 10 11  1  0
 11 12  1  0
 12 13  1  0
 13 14  1  0
 14 15  1  0
 15 16  1  0
 16 17  2  0
 17 18  1  0
 18 19  2  0
 19 20  1  0
 20 21  2  0
 21 22  1  0
 22 23  2  0
 23 24  1  0
 13 25  1  0
 25 26  2  0
 26 27  1  0
 27 28  2  0
 28 29  1  0
 29 30  2  0
 30 31  1  0
 31 32  2  0
 32 33  1  0
 33 34  2  0
 28 35  1  0
  8 36  1  0
 36 37  1  0
 37 38  2  0
 38 39  1  0
 39 40  1  0
 40 41  2  0
 40 42  1  0
 42 43  2  0
 43 44  1  0
 44 45  2  0
 45 46  1  0
 46 47  2  0
  7  3  2  0
 24 16  1  0
 35 25  1  0
 47 37  1  0
 24 20  1  0
 34 29  1  0
 47 42  1  0
  1 48  1  0
  1 49  1  0
  2 50  1  0
  2 51  1  0
  5 52  1  0
 10 53  1  0
 10 54  1  0
 11 55  1  0
 11 56  1  0
 12 57  1  0
 13 58  1  0
 14 59  1  0
 15 60  1  0
 15 61  1  0
 17 62  1  0
 18 63  1  0
 19 64  1  0
 23 65  1  0
 30 66  1  0
 31 67  1  0
 32 68  1  0
 33 69  1  0
 34 70  1  0
 35 71  1  0
 36 72  1  0
 38 73  1  0
 39 74  1  0
 43 75  1  0
 44 76  1  0
 45 77  1  0
 46 78  1  0
M  END
>  <Energy>  (545) 
67.956076412654426

>  <compound_id>  (545) 
4200

>  <target_id>  (545) 
1

>  <reference_id>  (545) 
132

>  <inspiration_ids>  (545) 
[147, 132]

>  <energy_score>  (545) 
-104.70178343388278

>  <distance_score>  (545) 
0.9203351624373107

>  <path>  (545) 
/opt/xchem-fragalysis-2/maxwin/BulkDock/SCRATCH/505735/C4200-P132/C4200-P132.minimised.mol

>  <scratch_subdir>  (545) 
/opt/xchem-fragalysis-2/maxwin/BulkDock/SCRATCH/505735/C4200-P132

>  <fragmenstein_runtime>  (545) 
26.269187450408936

>  <fragmenstein_outcome>  (545) 
acceptable

>  <fragmenstein_mode>  (545) 
expansion

>  <fragmenstein_error>  (545) 


$$$$
C4201-P147
     RDKit          3D

 53 57  0  0  0  0  0  0  0  0999 V2000
   -1.4292    3.7837   26.7293 C   0  0  0  0  0  0  0  0  0  0  0  0
   -2.2455    2.7348   26.3198 C   0  0  0  0  0  0  0  0  0  0  0  0
   -2.0332    1.4551   26.8323 C   0  0  0  0  0  0  0  0  0  0  0  0
   -1.0167    1.2047   27.7597 C   0  0  0  0  0  0  0  0  0  0  0  0
   -0.8561   -0.1354   28.3084 C   0  0  0  0  0  0  0  0  0  0  0  0
   -1.8037   -0.9479   28.7317 N   0  0  0  0  0  0  0  0  0  0  0  0
   -1.2223   -2.1123   29.1710 N   0  0  0  0  0  0  0  0  0  0  0  0
    0.0764   -2.0040   28.9908 C   0  0  0  0  0  0  0  0  0  0  0  0
    1.1049   -3.0269   29.3153 C   0  0  0  0  0  0  0  0  0  0  0  0
    0.8451   -3.5472   30.6559 N   0  0  0  0  0  0  0  0  0  0  0  0
    1.7207   -4.6361   31.0605 C   0  0  0  0  0  0  0  0  0  0  0  0
    1.2628   -5.3608   32.3593 C   0  0  0  0  0  0  0  0  0  0  0  0
    0.0985   -6.2190   32.1719 N   0  0  0  0  0  0  0  0  0  0  0  0
   -0.4192   -6.7738   31.0447 C   0  0  0  0  0  0  0  0  0  0  0  0
   -1.3071   -7.6866   31.3689 N   0  0  0  0  0  0  0  0  0  0  0  0
   -1.3750   -7.7280   32.7448 N   0  0  0  0  0  0  0  0  0  0  0  0
   -0.5290   -6.8388   33.2140 C   0  0  0  0  0  0  0  0  0  0  0  0
   -0.1897   -6.4778   34.6078 C   0  0  0  0  0  0  0  0  0  0  0  0
    0.1142   -4.9742   34.6843 C   0  0  0  0  0  0  0  0  0  0  0  0
    1.2400   -4.4690   33.7071 C   0  0  0  0  0  0  0  0  0  0  0  0
    2.6657   -4.6218   34.3952 C   0  0  0  0  0  0  0  0  0  0  0  0
    2.9825   -3.6883   35.4857 N   0  0  0  0  0  0  0  0  0  0  0  0
    2.8013   -2.3165   34.9971 C   0  0  0  0  0  0  0  0  0  0  0  0
    1.3773   -2.0876   34.4784 C   0  0  0  0  0  0  0  0  0  0  0  0
    0.9448   -3.0313   33.4446 N   0  0  0  0  0  0  0  0  0  0  0  0
    0.3464   -0.7765   28.4518 N   0  0  0  0  0  0  0  0  0  0  0  0
   -0.1947    2.2660   28.1568 C   0  0  0  0  0  0  0  0  0  0  0  0
   -0.4036    3.5506   27.6448 C   0  0  0  0  0  0  0  0  0  0  0  0
   -1.6086    4.7863   26.3480 H   0  0  0  0  0  0  0  0  0  0  0  0
   -3.0572    2.9122   25.6174 H   0  0  0  0  0  0  0  0  0  0  0  0
   -2.6633    0.6387   26.4973 H   0  0  0  0  0  0  0  0  0  0  0  0
    1.0458   -3.8304   28.5737 H   0  0  0  0  0  0  0  0  0  0  0  0
    2.1086   -2.5902   29.2705 H   0  0  0  0  0  0  0  0  0  0  0  0
   -0.1488   -3.7960   30.7065 H   0  0  0  0  0  0  0  0  0  0  0  0
    2.7256   -4.2292   31.2283 H   0  0  0  0  0  0  0  0  0  0  0  0
    1.8188   -5.3674   30.2493 H   0  0  0  0  0  0  0  0  0  0  0  0
    2.0481   -6.1126   32.5298 H   0  0  0  0  0  0  0  0  0  0  0  0
   -0.1360   -6.5101   30.0370 H   0  0  0  0  0  0  0  0  0  0  0  0
   -1.0279   -6.7187   35.2709 H   0  0  0  0  0  0  0  0  0  0  0  0
    0.6756   -7.0602   34.9425 H   0  0  0  0  0  0  0  0  0  0  0  0
   -0.8210   -4.4465   34.4452 H   0  0  0  0  0  0  0  0  0  0  0  0
    0.3466   -4.7068   35.7216 H   0  0  0  0  0  0  0  0  0  0  0  0
    3.4455   -4.5111   33.6298 H   0  0  0  0  0  0  0  0  0  0  0  0
    2.7689   -5.6420   34.7844 H   0  0  0  0  0  0  0  0  0  0  0  0
    2.3266   -3.8383   36.2535 H   0  0  0  0  0  0  0  0  0  0  0  0
    3.0080   -1.6191   35.8164 H   0  0  0  0  0  0  0  0  0  0  0  0
    3.5328   -2.1030   34.2081 H   0  0  0  0  0  0  0  0  0  0  0  0
    0.6729   -2.1445   35.3175 H   0  0  0  0  0  0  0  0  0  0  0  0
    1.2938   -1.0695   34.0818 H   0  0  0  0  0  0  0  0  0  0  0  0
    1.2870   -2.7410   32.5242 H   0  0  0  0  0  0  0  0  0  0  0  0
    1.2415   -0.4184   28.1607 H   0  0  0  0  0  0  0  0  0  0  0  0
    0.5848    2.1198   28.8988 H   0  0  0  0  0  0  0  0  0  0  0  0
    0.2138    4.3793   27.9822 H   0  0  0  0  0  0  0  0  0  0  0  0
  1  2  2  0
  2  3  1  0
  3  4  2  0
  4  5  1  0
  5  6  2  0
  6  7  1  0
  7  8  2  0
  8  9  1  0
  9 10  1  0
 10 11  1  0
 11 12  1  0
 12 13  1  0
 13 14  1  0
 14 15  2  0
 15 16  1  0
 16 17  2  0
 17 18  1  0
 18 19  1  0
 19 20  1  0
 20 21  1  0
 21 22  1  0
 22 23  1  0
 23 24  1  0
 24 25  1  0
  8 26  1  0
  4 27  1  0
 27 28  2  0
 28  1  1  0
 26  5  1  0
 20 12  1  0
 17 13  1  0
 25 20  1  0
  1 29  1  0
  2 30  1  0
  3 31  1  0
  9 32  1  0
  9 33  1  0
 10 34  1  0
 11 35  1  0
 11 36  1  0
 12 37  1  0
 14 38  1  0
 18 39  1  0
 18 40  1  0
 19 41  1  0
 19 42  1  0
 21 43  1  0
 21 44  1  0
 22 45  1  0
 23 46  1  0
 23 47  1  0
 24 48  1  0
 24 49  1  0
 25 50  1  0
 26 51  1  0
 27 52  1  0
 28 53  1  0
M  END
>  <Energy>  (546) 
128.1759430994629

>  <compound_id>  (546) 
4201

>  <target_id>  (546) 
1

>  <reference_id>  (546) 
147

>  <inspiration_ids>  (546) 
[147, 133]

>  <energy_score>  (546) 
-47.06581479989637

>  <distance_score>  (546) 
1.191938456348779

>  <path>  (546) 
/opt/xchem-fragalysis-2/maxwin/BulkDock/SCRATCH/505735/C4201-P147/C4201-P147.minimised.mol

>  <scratch_subdir>  (546) 
/opt/xchem-fragalysis-2/maxwin/BulkDock/SCRATCH/505735/C4201-P147

>  <fragmenstein_runtime>  (546) 
7.492201089859009

>  <fragmenstein_outcome>  (546) 
too moved

>  <fragmenstein_mode>  (546) 
expansion

>  <fragmenstein_error>  (546) 


$$$$
C4201-P133
     RDKit          3D

 53 57  0  0  0  0  0  0  0  0999 V2000
   -1.4913    3.6943   26.3905 C   0  0  0  0  0  0  0  0  0  0  0  0
   -2.0937    2.5275   25.9276 C   0  0  0  0  0  0  0  0  0  0  0  0
   -1.9176    1.3277   26.6201 C   0  0  0  0  0  0  0  0  0  0  0  0
   -1.1719    1.2932   27.8000 C   0  0  0  0  0  0  0  0  0  0  0  0
   -1.0367    0.0774   28.5851 C   0  0  0  0  0  0  0  0  0  0  0  0
   -1.2617   -0.0571   29.8760 N   0  0  0  0  0  0  0  0  0  0  0  0
   -0.8499   -1.3058   30.2607 N   0  0  0  0  0  0  0  0  0  0  0  0
   -0.3613   -1.9148   29.2016 C   0  0  0  0  0  0  0  0  0  0  0  0
    0.3887   -3.2010   29.1841 C   0  0  0  0  0  0  0  0  0  0  0  0
    0.2680   -3.8824   30.4794 N   0  0  0  0  0  0  0  0  0  0  0  0
    1.4520   -4.6534   30.8391 C   0  0  0  0  0  0  0  0  0  0  0  0
    1.2951   -5.3913   32.2014 C   0  0  0  0  0  0  0  0  0  0  0  0
    0.2119   -6.3774   32.1331 N   0  0  0  0  0  0  0  0  0  0  0  0
   -0.2033   -7.1295   31.0750 C   0  0  0  0  0  0  0  0  0  0  0  0
   -1.1793   -7.9250   31.4443 N   0  0  0  0  0  0  0  0  0  0  0  0
   -1.4119   -7.6904   32.7791 N   0  0  0  0  0  0  0  0  0  0  0  0
   -0.5818   -6.7508   33.1758 C   0  0  0  0  0  0  0  0  0  0  0  0
   -0.4637   -6.1000   34.4931 C   0  0  0  0  0  0  0  0  0  0  0  0
   -0.0636   -4.6313   34.2980 C   0  0  0  0  0  0  0  0  0  0  0  0
    1.2794   -4.4324   33.5157 C   0  0  0  0  0  0  0  0  0  0  0  0
    2.5145   -4.8125   34.4422 C   0  0  0  0  0  0  0  0  0  0  0  0
    2.7380   -3.9464   35.6139 N   0  0  0  0  0  0  0  0  0  0  0  0
    2.8302   -2.5419   35.1933 C   0  0  0  0  0  0  0  0  0  0  0  0
    1.6423   -2.1006   34.3234 C   0  0  0  0  0  0  0  0  0  0  0  0
    1.4406   -2.9775   33.1542 N   0  0  0  0  0  0  0  0  0  0  0  0
   -0.5738   -1.1193   28.1079 N   0  0  0  0  0  0  0  0  0  0  0  0
   -0.5698    2.4730   28.2544 C   0  0  0  0  0  0  0  0  0  0  0  0
   -0.7253    3.6683   27.5522 C   0  0  0  0  0  0  0  0  0  0  0  0
   -1.6450    4.6302   25.8587 H   0  0  0  0  0  0  0  0  0  0  0  0
   -2.7164    2.5587   25.0367 H   0  0  0  0  0  0  0  0  0  0  0  0
   -2.3886    0.4268   26.2419 H   0  0  0  0  0  0  0  0  0  0  0  0
   -0.0036   -3.8541   28.4012 H   0  0  0  0  0  0  0  0  0  0  0  0
    1.4361   -2.9739   28.9511 H   0  0  0  0  0  0  0  0  0  0  0  0
    0.1108   -3.1570   31.1975 H   0  0  0  0  0  0  0  0  0  0  0  0
    2.3408   -4.0122   30.8691 H   0  0  0  0  0  0  0  0  0  0  0  0
    1.6567   -5.3862   30.0488 H   0  0  0  0  0  0  0  0  0  0  0  0
    2.1904   -6.0213   32.2887 H   0  0  0  0  0  0  0  0  0  0  0  0
    0.2117   -7.0751   30.0823 H   0  0  0  0  0  0  0  0  0  0  0  0
   -1.4206   -6.1524   35.0227 H   0  0  0  0  0  0  0  0  0  0  0  0
    0.2721   -6.6287   35.1075 H   0  0  0  0  0  0  0  0  0  0  0  0
   -0.8662   -4.1237   33.7433 H   0  0  0  0  0  0  0  0  0  0  0  0
   -0.0293   -4.1548   35.2836 H   0  0  0  0  0  0  0  0  0  0  0  0
    3.4310   -4.7982   33.8363 H   0  0  0  0  0  0  0  0  0  0  0  0
    2.4090   -5.8443   34.7956 H   0  0  0  0  0  0  0  0  0  0  0  0
    1.9431   -4.0351   36.2483 H   0  0  0  0  0  0  0  0  0  0  0  0
    2.8867   -1.9070   36.0844 H   0  0  0  0  0  0  0  0  0  0  0  0
    3.7681   -2.3945   34.6435 H   0  0  0  0  0  0  0  0  0  0  0  0
    0.7256   -2.0538   34.9214 H   0  0  0  0  0  0  0  0  0  0  0  0
    1.8218   -1.0815   33.9622 H   0  0  0  0  0  0  0  0  0  0  0  0
    2.2793   -2.8660   32.5846 H   0  0  0  0  0  0  0  0  0  0  0  0
   -0.3610   -1.3205   27.1427 H   0  0  0  0  0  0  0  0  0  0  0  0
    0.0028    2.4730   29.1794 H   0  0  0  0  0  0  0  0  0  0  0  0
   -0.2797    4.5834   27.9331 H   0  0  0  0  0  0  0  0  0  0  0  0
  1  2  2  0
  2  3  1  0
  3  4  2  0
  4  5  1  0
  5  6  2  0
  6  7  1  0
  7  8  2  0
  8  9  1  0
  9 10  1  0
 10 11  1  0
 11 12  1  0
 12 13  1  0
 13 14  1  0
 14 15  2  0
 15 16  1  0
 16 17  2  0
 17 18  1  0
 18 19  1  0
 19 20  1  0
 20 21  1  0
 21 22  1  0
 22 23  1  0
 23 24  1  0
 24 25  1  0
  8 26  1  0
  4 27  1  0
 27 28  2  0
 28  1  1  0
 26  5  1  0
 20 12  1  0
 17 13  1  0
 25 20  1  0
  1 29  1  0
  2 30  1  0
  3 31  1  0
  9 32  1  0
  9 33  1  0
 10 34  1  0
 11 35  1  0
 11 36  1  0
 12 37  1  0
 14 38  1  0
 18 39  1  0
 18 40  1  0
 19 41  1  0
 19 42  1  0
 21 43  1  0
 21 44  1  0
 22 45  1  0
 23 46  1  0
 23 47  1  0
 24 48  1  0
 24 49  1  0
 25 50  1  0
 26 51  1  0
 27 52  1  0
 28 53  1  0
M  END
>  <Energy>  (547) 
129.08448029678814

>  <compound_id>  (547) 
4201

>  <target_id>  (547) 
1

>  <reference_id>  (547) 
133

>  <inspiration_ids>  (547) 
[147, 133]

>  <energy_score>  (547) 
-46.15727760256931

>  <distance_score>  (547) 
1.3108802869429175

>  <path>  (547) 
/opt/xchem-fragalysis-2/maxwin/BulkDock/SCRATCH/505735/C4201-P133/C4201-P133.minimised.mol

>  <scratch_subdir>  (547) 
/opt/xchem-fragalysis-2/maxwin/BulkDock/SCRATCH/505735/C4201-P133

>  <fragmenstein_runtime>  (547) 
6.408027410507202

>  <fragmenstein_outcome>  (547) 
too moved

>  <fragmenstein_mode>  (547) 
expansion

>  <fragmenstein_error>  (547) 


$$$$
C4201-P147
     RDKit          2D

  0  0  0  0  0  0  0  0  0  0999 V2000
M  END
>  <compound_id>  (548) 
4201

>  <target_id>  (548) 
1

>  <reference_id>  (548) 
147

>  <inspiration_ids>  (548) 
[147, 134]

>  <energy_score>  (548) 
nan

>  <distance_score>  (548) 
nan

>  <path>  (548) 
/opt/xchem-fragalysis-2/maxwin/BulkDock/SCRATCH/505735/C4201-P147/C4201-P147.minimised.mol

>  <scratch_subdir>  (548) 
/opt/xchem-fragalysis-2/maxwin/BulkDock/SCRATCH/505735/C4201-P147

>  <fragmenstein_runtime>  (548) 
0.28669071197509766

>  <fragmenstein_outcome>  (548) 
too distant

>  <fragmenstein_mode>  (548) 
expansion

>  <fragmenstein_error>  (548) 
DistanceError: hit0+hit1

$$$$
C4203-P147
     RDKit          3D

 55 61  0  0  0  0  0  0  0  0999 V2000
    0.9022   -2.5005   33.3887 C   0  0  0  0  0  0  0  0  0  0  0  0
    0.8274   -2.8750   32.0818 C   0  0  0  0  0  0  0  0  0  0  0  0
    0.0126   -2.1468   31.1126 C   0  0  0  0  0  0  0  0  0  0  0  0
   -1.0348   -2.6086   30.4521 N   0  0  0  0  0  0  0  0  0  0  0  0
   -1.4056   -1.6859   29.5053 N   0  0  0  0  0  0  0  0  0  0  0  0
   -0.5657   -0.6662   29.5375 C   0  0  0  0  0  0  0  0  0  0  0  0
   -0.6681    0.5493   28.7001 C   0  0  0  0  0  0  0  0  0  0  0  0
   -1.5921    0.5787   27.6392 C   0  0  0  0  0  0  0  0  0  0  0  0
   -1.8465    1.7485   26.9098 C   0  0  0  0  0  0  0  0  0  0  0  0
   -1.1412    2.9096   27.1981 C   0  0  0  0  0  0  0  0  0  0  0  0
   -0.1803    2.8914   28.2074 C   0  0  0  0  0  0  0  0  0  0  0  0
    0.0543    1.7226   28.9536 C   0  0  0  0  0  0  0  0  0  0  0  0
    0.3702   -0.9453   30.5260 N   0  0  0  0  0  0  0  0  0  0  0  0
    1.3495   -4.0557   31.6040 N   0  0  0  0  0  0  0  0  0  0  0  0
    1.6546   -5.2305   32.3815 C   0  0  0  0  0  0  0  0  0  0  0  0
    0.3849   -5.9762   32.7884 C   0  0  0  0  0  0  0  0  0  0  0  0
   -0.0923   -6.0111   34.0549 C   0  0  0  0  0  0  0  0  0  0  0  0
   -1.1052   -6.9423   34.4652 C   0  0  0  0  0  0  0  0  0  0  0  0
   -1.6332   -7.7877   33.5776 C   0  0  0  0  0  0  0  0  0  0  0  0
   -1.2381   -7.7293   32.2253 C   0  0  0  0  0  0  0  0  0  0  0  0
   -1.6226   -8.4097   31.1740 N   0  0  0  0  0  0  0  0  0  0  0  0
   -0.9177   -7.9442   30.0973 N   0  0  0  0  0  0  0  0  0  0  0  0
   -0.1143   -6.9971   30.5231 C   0  0  0  0  0  0  0  0  0  0  0  0
   -0.2523   -6.8225   31.8706 N   0  0  0  0  0  0  0  0  0  0  0  0
    2.6254   -5.0494   33.5188 C   0  0  0  0  0  0  0  0  0  0  0  0
    3.7081   -5.7542   33.7385 N   0  0  0  0  0  0  0  0  0  0  0  0
    3.8719   -5.8467   35.0848 N   0  0  0  0  0  0  0  0  0  0  0  0
    2.9200   -5.1430   35.6865 C   0  0  0  0  0  0  0  0  0  0  0  0
    2.5309   -5.4797   37.0840 C   0  0  0  0  0  0  0  0  0  0  0  0
    1.2361   -5.3924   37.5985 C   0  0  0  0  0  0  0  0  0  0  0  0
    0.9103   -5.9949   38.8276 C   0  0  0  0  0  0  0  0  0  0  0  0
    1.8963   -6.6577   39.5395 C   0  0  0  0  0  0  0  0  0  0  0  0
    3.1684   -6.7382   39.1124 N   0  0  0  0  0  0  0  0  0  0  0  0
    3.4449   -6.1686   37.9038 C   0  0  0  0  0  0  0  0  0  0  0  0
    2.3515   -4.3470   34.6681 N   0  0  0  0  0  0  0  0  0  0  0  0
    1.5360   -3.1263   34.6888 C   0  0  0  0  0  0  0  0  0  0  0  0
    0.3746   -1.5788   33.6464 H   0  0  0  0  0  0  0  0  0  0  0  0
   -2.1449   -0.3263   27.3847 H   0  0  0  0  0  0  0  0  0  0  0  0
   -2.6043    1.7440   26.1301 H   0  0  0  0  0  0  0  0  0  0  0  0
   -1.3472    3.8238   26.6473 H   0  0  0  0  0  0  0  0  0  0  0  0
    0.3659    3.8026   28.4407 H   0  0  0  0  0  0  0  0  0  0  0  0
    0.7816    1.7718   29.7575 H   0  0  0  0  0  0  0  0  0  0  0  0
    1.1792   -0.3900   30.7507 H   0  0  0  0  0  0  0  0  0  0  0  0
    0.9756   -4.2628   30.6758 H   0  0  0  0  0  0  0  0  0  0  0  0
    2.1772   -5.8941   31.6901 H   0  0  0  0  0  0  0  0  0  0  0  0
    0.2779   -5.4340   34.8762 H   0  0  0  0  0  0  0  0  0  0  0  0
   -1.3869   -6.9791   35.5122 H   0  0  0  0  0  0  0  0  0  0  0  0
   -2.3756   -8.5156   33.8673 H   0  0  0  0  0  0  0  0  0  0  0  0
    0.5596   -6.4217   29.9088 H   0  0  0  0  0  0  0  0  0  0  0  0
    0.4385   -4.9032   37.0521 H   0  0  0  0  0  0  0  0  0  0  0  0
   -0.1019   -5.9484   39.2175 H   0  0  0  0  0  0  0  0  0  0  0  0
    1.6857   -7.1437   40.4878 H   0  0  0  0  0  0  0  0  0  0  0  0
    4.4723   -6.3236   37.5754 H   0  0  0  0  0  0  0  0  0  0  0  0
    2.1980   -2.3633   35.1167 H   0  0  0  0  0  0  0  0  0  0  0  0
    0.7265   -3.2959   35.4048 H   0  0  0  0  0  0  0  0  0  0  0  0
  1  2  2  0
  2  3  1  0
  3  4  2  0
  4  5  1  0
  5  6  2  0
  6  7  1  0
  7  8  2  0
  8  9  1  0
  9 10  2  0
 10 11  1  0
 11 12  2  0
  6 13  1  0
  2 14  1  0
 14 15  1  0
 15 16  1  0
 16 17  2  0
 17 18  1  0
 18 19  2  0
 19 20  1  0
 20 21  2  0
 21 22  1  0
 22 23  2  0
 23 24  1  0
 15 25  1  0
 25 26  2  0
 26 27  1  0
 27 28  2  0
 28 29  1  0
 29 30  2  0
 30 31  1  0
 31 32  2  0
 32 33  1  0
 33 34  2  0
 28 35  1  0
 35 36  1  0
 36  1  1  0
 13  3  1  0
 24 16  1  0
 35 25  1  0
 12  7  1  0
 24 20  1  0
 34 29  1  0
  1 37  1  0
  8 38  1  0
  9 39  1  0
 10 40  1  0
 11 41  1  0
 12 42  1  0
 13 43  1  0
 14 44  1  0
 15 45  1  0
 17 46  1  0
 18 47  1  0
 19 48  1  0
 23 49  1  0
 30 50  1  0
 31 51  1  0
 32 52  1  0
 34 53  1  0
 36 54  1  0
 36 55  1  0
M  END
>  <Energy>  (549) 
107.69539279210584

>  <compound_id>  (549) 
4203

>  <target_id>  (549) 
1

>  <reference_id>  (549) 
147

>  <inspiration_ids>  (549) 
[147, 140]

>  <energy_score>  (549) 
4.768888600575394

>  <distance_score>  (549) 
1.7747471650784

>  <path>  (549) 
/opt/xchem-fragalysis-2/maxwin/BulkDock/SCRATCH/505735/C4203-P147/C4203-P147.minimised.mol

>  <scratch_subdir>  (549) 
/opt/xchem-fragalysis-2/maxwin/BulkDock/SCRATCH/505735/C4203-P147

>  <fragmenstein_runtime>  (549) 
6.556312322616577

>  <fragmenstein_outcome>  (549) 
too moved

>  <fragmenstein_mode>  (549) 
expansion

>  <fragmenstein_error>  (549) 


$$$$
C4203-P140
     RDKit          3D

 55 61  0  0  0  0  0  0  0  0999 V2000
    0.9819   -2.4591   33.4226 C   0  0  0  0  0  0  0  0  0  0  0  0
    0.9207   -2.8204   32.1103 C   0  0  0  0  0  0  0  0  0  0  0  0
    0.0850   -2.1043   31.1504 C   0  0  0  0  0  0  0  0  0  0  0  0
   -0.9736   -2.5702   30.5107 N   0  0  0  0  0  0  0  0  0  0  0  0
   -1.3554   -1.6561   29.5589 N   0  0  0  0  0  0  0  0  0  0  0  0
   -0.5122   -0.6387   29.5687 C   0  0  0  0  0  0  0  0  0  0  0  0
   -0.6193    0.5687   28.7211 C   0  0  0  0  0  0  0  0  0  0  0  0
   -1.5297    0.5807   27.6490 C   0  0  0  0  0  0  0  0  0  0  0  0
   -1.7850    1.7435   26.9079 C   0  0  0  0  0  0  0  0  0  0  0  0
   -1.0952    2.9138   27.1959 C   0  0  0  0  0  0  0  0  0  0  0  0
   -0.1471    2.9122   28.2168 C   0  0  0  0  0  0  0  0  0  0  0  0
    0.0876    1.7515   28.9753 C   0  0  0  0  0  0  0  0  0  0  0  0
    0.4373   -0.9106   30.5454 N   0  0  0  0  0  0  0  0  0  0  0  0
    1.4843   -3.9783   31.6193 N   0  0  0  0  0  0  0  0  0  0  0  0
    1.7501   -5.1685   32.3908 C   0  0  0  0  0  0  0  0  0  0  0  0
    0.4503   -5.8752   32.7695 C   0  0  0  0  0  0  0  0  0  0  0  0
   -0.0880   -5.8494   34.0117 C   0  0  0  0  0  0  0  0  0  0  0  0
   -1.1468   -6.7350   34.4039 C   0  0  0  0  0  0  0  0  0  0  0  0
   -1.6669   -7.5844   33.5161 C   0  0  0  0  0  0  0  0  0  0  0  0
   -1.2091   -7.5815   32.1837 C   0  0  0  0  0  0  0  0  0  0  0  0
   -1.5680   -8.2803   31.1370 N   0  0  0  0  0  0  0  0  0  0  0  0
   -0.7931   -7.8790   30.0827 N   0  0  0  0  0  0  0  0  0  0  0  0
    0.0324   -6.9575   30.5206 C   0  0  0  0  0  0  0  0  0  0  0  0
   -0.1708   -6.7289   31.8507 N   0  0  0  0  0  0  0  0  0  0  0  0
    2.6924   -5.0199   33.5536 C   0  0  0  0  0  0  0  0  0  0  0  0
    3.7484   -5.7570   33.7874 N   0  0  0  0  0  0  0  0  0  0  0  0
    3.8894   -5.8636   35.1326 N   0  0  0  0  0  0  0  0  0  0  0  0
    2.9489   -5.1379   35.7246 C   0  0  0  0  0  0  0  0  0  0  0  0
    2.5434   -5.4734   37.1158 C   0  0  0  0  0  0  0  0  0  0  0  0
    1.2366   -5.4154   37.6021 C   0  0  0  0  0  0  0  0  0  0  0  0
    0.8992   -6.0299   38.8219 C   0  0  0  0  0  0  0  0  0  0  0  0
    1.8842   -6.6757   39.5513 C   0  0  0  0  0  0  0  0  0  0  0  0
    3.1671   -6.7246   39.1524 N   0  0  0  0  0  0  0  0  0  0  0  0
    3.4556   -6.1452   37.9520 C   0  0  0  0  0  0  0  0  0  0  0  0
    2.4119   -4.3234   34.7042 N   0  0  0  0  0  0  0  0  0  0  0  0
    1.6385   -3.0746   34.7188 C   0  0  0  0  0  0  0  0  0  0  0  0
    0.4265   -1.5562   33.6889 H   0  0  0  0  0  0  0  0  0  0  0  0
   -2.0720   -0.3313   27.3946 H   0  0  0  0  0  0  0  0  0  0  0  0
   -2.5318    1.7255   26.1176 H   0  0  0  0  0  0  0  0  0  0  0  0
   -1.3022    3.8217   26.6350 H   0  0  0  0  0  0  0  0  0  0  0  0
    0.3899    3.8297   28.4480 H   0  0  0  0  0  0  0  0  0  0  0  0
    0.8047    1.8132   29.7878 H   0  0  0  0  0  0  0  0  0  0  0  0
    1.2524   -0.3568   30.7513 H   0  0  0  0  0  0  0  0  0  0  0  0
    1.1177   -4.1805   30.6867 H   0  0  0  0  0  0  0  0  0  0  0  0
    2.2853   -5.8363   31.7085 H   0  0  0  0  0  0  0  0  0  0  0  0
    0.2530   -5.2466   34.8271 H   0  0  0  0  0  0  0  0  0  0  0  0
   -1.4698   -6.7358   35.4388 H   0  0  0  0  0  0  0  0  0  0  0  0
   -2.4379   -8.2866   33.7942 H   0  0  0  0  0  0  0  0  0  0  0  0
    0.7683   -6.4390   29.9273 H   0  0  0  0  0  0  0  0  0  0  0  0
    0.4408   -4.9444   37.0376 H   0  0  0  0  0  0  0  0  0  0  0  0
   -0.1213   -6.0101   39.1906 H   0  0  0  0  0  0  0  0  0  0  0  0
    1.6629   -7.1744   40.4906 H   0  0  0  0  0  0  0  0  0  0  0  0
    4.4920   -6.2786   37.6430 H   0  0  0  0  0  0  0  0  0  0  0  0
    2.3364   -2.3232   35.1085 H   0  0  0  0  0  0  0  0  0  0  0  0
    0.8482   -3.2028   35.4651 H   0  0  0  0  0  0  0  0  0  0  0  0
  1  2  2  0
  2  3  1  0
  3  4  2  0
  4  5  1  0
  5  6  2  0
  6  7  1  0
  7  8  2  0
  8  9  1  0
  9 10  2  0
 10 11  1  0
 11 12  2  0
  6 13  1  0
  2 14  1  0
 14 15  1  0
 15 16  1  0
 16 17  2  0
 17 18  1  0
 18 19  2  0
 19 20  1  0
 20 21  2  0
 21 22  1  0
 22 23  2  0
 23 24  1  0
 15 25  1  0
 25 26  2  0
 26 27  1  0
 27 28  2  0
 28 29  1  0
 29 30  2  0
 30 31  1  0
 31 32  2  0
 32 33  1  0
 33 34  2  0
 28 35  1  0
 35 36  1  0
 36  1  1  0
 13  3  1  0
 24 16  1  0
 35 25  1  0
 12  7  1  0
 24 20  1  0
 34 29  1  0
  1 37  1  0
  8 38  1  0
  9 39  1  0
 10 40  1  0
 11 41  1  0
 12 42  1  0
 13 43  1  0
 14 44  1  0
 15 45  1  0
 17 46  1  0
 18 47  1  0
 19 48  1  0
 23 49  1  0
 30 50  1  0
 31 51  1  0
 32 52  1  0
 34 53  1  0
 36 54  1  0
 36 55  1  0
M  END
>  <Energy>  (550) 
108.09219311113149

>  <compound_id>  (550) 
4203

>  <target_id>  (550) 
1

>  <reference_id>  (550) 
140

>  <inspiration_ids>  (550) 
[147, 140]

>  <energy_score>  (550) 
5.165688919601337

>  <distance_score>  (550) 
1.784573761842417

>  <path>  (550) 
/opt/xchem-fragalysis-2/maxwin/BulkDock/SCRATCH/505735/C4203-P140/C4203-P140.minimised.mol

>  <scratch_subdir>  (550) 
/opt/xchem-fragalysis-2/maxwin/BulkDock/SCRATCH/505735/C4203-P140

>  <fragmenstein_runtime>  (550) 
6.832613945007324

>  <fragmenstein_outcome>  (550) 
too moved

>  <fragmenstein_mode>  (550) 
expansion

>  <fragmenstein_error>  (550) 


$$$$
C4204-P147
     RDKit          3D

 51 55  0  0  0  0  0  0  0  0999 V2000
   -1.4208    3.7430   26.6340 C   0  0  0  0  0  0  0  0  0  0  0  0
   -2.2135    2.6724   26.2312 C   0  0  0  0  0  0  0  0  0  0  0  0
   -2.0299    1.4182   26.8142 C   0  0  0  0  0  0  0  0  0  0  0  0
   -1.0712    1.2227   27.8107 C   0  0  0  0  0  0  0  0  0  0  0  0
   -0.9553   -0.0655   28.4726 C   0  0  0  0  0  0  0  0  0  0  0  0
   -1.7901   -0.5929   29.3436 N   0  0  0  0  0  0  0  0  0  0  0  0
   -1.2648   -1.7800   29.7877 N   0  0  0  0  0  0  0  0  0  0  0  0
   -0.1155   -1.9697   29.1737 C   0  0  0  0  0  0  0  0  0  0  0  0
    0.8628   -3.0681   29.4158 C   0  0  0  0  0  0  0  0  0  0  0  0
    0.3822   -3.9406   30.4926 N   0  0  0  0  0  0  0  0  0  0  0  0
    1.4294   -4.7526   31.0825 C   0  0  0  0  0  0  0  0  0  0  0  0
    0.8641   -5.6402   32.1584 C   0  0  0  0  0  0  0  0  0  0  0  0
    1.3047   -5.6189   33.4354 C   0  0  0  0  0  0  0  0  0  0  0  0
    0.7568   -6.5596   34.4090 C   0  0  0  0  0  0  0  0  0  0  0  0
    1.7378   -6.9808   35.7652 S   0  0  0  0  0  0  0  0  0  0  0  0
    1.0478   -5.9941   37.1187 C   0  0  0  0  0  0  0  0  0  0  0  0
    1.2752   -6.6572   38.4572 C   0  0  0  0  0  0  0  0  0  0  0  0
    2.5255   -7.1587   38.8444 C   0  0  0  0  0  0  0  0  0  0  0  0
    2.6475   -7.7877   40.0741 C   0  0  0  0  0  0  0  0  0  0  0  0
    1.6333   -7.9198   40.9506 N   0  0  0  0  0  0  0  0  0  0  0  0
    0.4410   -7.4163   40.5749 C   0  0  0  0  0  0  0  0  0  0  0  0
    0.2204   -6.7720   39.3664 C   0  0  0  0  0  0  0  0  0  0  0  0
   -0.3150   -7.3227   34.1154 C   0  0  0  0  0  0  0  0  0  0  0  0
   -0.7826   -7.3638   32.7769 C   0  0  0  0  0  0  0  0  0  0  0  0
   -1.6465   -8.1471   32.1694 N   0  0  0  0  0  0  0  0  0  0  0  0
   -1.5764   -7.8875   30.8243 N   0  0  0  0  0  0  0  0  0  0  0  0
   -0.6906   -6.9355   30.6496 C   0  0  0  0  0  0  0  0  0  0  0  0
   -0.1443   -6.5623   31.8439 N   0  0  0  0  0  0  0  0  0  0  0  0
    0.0945   -0.9287   28.3091 N   0  0  0  0  0  0  0  0  0  0  0  0
   -0.2692    2.3009   28.1998 C   0  0  0  0  0  0  0  0  0  0  0  0
   -0.4454    3.5573   27.6133 C   0  0  0  0  0  0  0  0  0  0  0  0
   -1.5822    4.7268   26.1994 H   0  0  0  0  0  0  0  0  0  0  0  0
   -2.9885    2.8169   25.4813 H   0  0  0  0  0  0  0  0  0  0  0  0
   -2.6444    0.5867   26.4902 H   0  0  0  0  0  0  0  0  0  0  0  0
    1.0046   -3.6540   28.5028 H   0  0  0  0  0  0  0  0  0  0  0  0
    1.8233   -2.6139   29.6878 H   0  0  0  0  0  0  0  0  0  0  0  0
   -0.0551   -3.3409   31.1986 H   0  0  0  0  0  0  0  0  0  0  0  0
    1.8996   -5.3791   30.3147 H   0  0  0  0  0  0  0  0  0  0  0  0
    2.2154   -4.1093   31.4973 H   0  0  0  0  0  0  0  0  0  0  0  0
    2.0903   -4.9400   33.7555 H   0  0  0  0  0  0  0  0  0  0  0  0
   -0.0264   -5.8593   36.9486 H   0  0  0  0  0  0  0  0  0  0  0  0
    1.5118   -5.0021   37.1205 H   0  0  0  0  0  0  0  0  0  0  0  0
    3.3958   -7.0862   38.2012 H   0  0  0  0  0  0  0  0  0  0  0  0
    3.5942   -8.2106   40.3968 H   0  0  0  0  0  0  0  0  0  0  0  0
   -0.3592   -7.5403   41.2988 H   0  0  0  0  0  0  0  0  0  0  0  0
   -0.7619   -6.3691   39.1476 H   0  0  0  0  0  0  0  0  0  0  0  0
   -0.6979   -8.0715   34.8008 H   0  0  0  0  0  0  0  0  0  0  0  0
   -0.4219   -6.4818   29.7101 H   0  0  0  0  0  0  0  0  0  0  0  0
    0.8617   -0.8024   27.6682 H   0  0  0  0  0  0  0  0  0  0  0  0
    0.4630    2.1864   28.9944 H   0  0  0  0  0  0  0  0  0  0  0  0
    0.1522    4.4024   27.9455 H   0  0  0  0  0  0  0  0  0  0  0  0
  1  2  2  0
  2  3  1  0
  3  4  2  0
  4  5  1  0
  5  6  2  0
  6  7  1  0
  7  8  2  0
  8  9  1  0
  9 10  1  0
 10 11  1  0
 11 12  1  0
 12 13  2  0
 13 14  1  0
 14 15  1  0
 15 16  1  0
 16 17  1  0
 17 18  2  0
 18 19  1  0
 19 20  2  0
 20 21  1  0
 21 22  2  0
 14 23  2  0
 23 24  1  0
 24 25  2  0
 25 26  1  0
 26 27  2  0
 27 28  1  0
  8 29  1  0
  4 30  1  0
 30 31  2  0
 31  1  1  0
 29  5  1  0
 28 12  1  0
 22 17  1  0
 28 24  1  0
  1 32  1  0
  2 33  1  0
  3 34  1  0
  9 35  1  0
  9 36  1  0
 10 37  1  0
 11 38  1  0
 11 39  1  0
 13 40  1  0
 16 41  1  0
 16 42  1  0
 18 43  1  0
 19 44  1  0
 21 45  1  0
 22 46  1  0
 23 47  1  0
 27 48  1  0
 29 49  1  0
 30 50  1  0
 31 51  1  0
M  END
>  <Energy>  (551) 
58.790659710482672

>  <compound_id>  (551) 
4204

>  <target_id>  (551) 
1

>  <reference_id>  (551) 
147

>  <inspiration_ids>  (551) 
[147, 144]

>  <energy_score>  (551) 
-21.517215721281957

>  <distance_score>  (551) 
0.686129958389518

>  <path>  (551) 
/opt/xchem-fragalysis-2/maxwin/BulkDock/SCRATCH/505735/C4204-P147/C4204-P147.minimised.mol

>  <scratch_subdir>  (551) 
/opt/xchem-fragalysis-2/maxwin/BulkDock/SCRATCH/505735/C4204-P147

>  <fragmenstein_runtime>  (551) 
11.013084888458252

>  <fragmenstein_outcome>  (551) 
acceptable

>  <fragmenstein_mode>  (551) 
expansion

>  <fragmenstein_error>  (551) 


$$$$
C4204-P144
     RDKit          3D

 51 55  0  0  0  0  0  0  0  0999 V2000
   -1.2001    3.6387   26.0563 C   0  0  0  0  0  0  0  0  0  0  0  0
   -1.9818    2.5348   25.7277 C   0  0  0  0  0  0  0  0  0  0  0  0
   -1.8170    1.3358   26.4228 C   0  0  0  0  0  0  0  0  0  0  0  0
   -0.9039    1.2412   27.4742 C   0  0  0  0  0  0  0  0  0  0  0  0
   -0.8557    0.0620   28.3198 C   0  0  0  0  0  0  0  0  0  0  0  0
   -1.3523   -0.0582   29.5347 N   0  0  0  0  0  0  0  0  0  0  0  0
   -0.9681   -1.2744   30.0400 N   0  0  0  0  0  0  0  0  0  0  0  0
   -0.2337   -1.8768   29.1280 C   0  0  0  0  0  0  0  0  0  0  0  0
    0.5485   -3.1314   29.3011 C   0  0  0  0  0  0  0  0  0  0  0  0
    0.1280   -3.8266   30.5273 N   0  0  0  0  0  0  0  0  0  0  0  0
    1.2126   -4.5776   31.1379 C   0  0  0  0  0  0  0  0  0  0  0  0
    0.7009   -5.4829   32.2272 C   0  0  0  0  0  0  0  0  0  0  0  0
    1.1482   -5.4563   33.5021 C   0  0  0  0  0  0  0  0  0  0  0  0
    0.6742   -6.4580   34.4600 C   0  0  0  0  0  0  0  0  0  0  0  0
    1.7206   -6.8748   35.7703 S   0  0  0  0  0  0  0  0  0  0  0  0
    1.0030   -5.9975   37.1836 C   0  0  0  0  0  0  0  0  0  0  0  0
    1.2860   -6.7211   38.4799 C   0  0  0  0  0  0  0  0  0  0  0  0
    2.5715   -7.1468   38.8382 C   0  0  0  0  0  0  0  0  0  0  0  0
    2.7412   -7.8549   40.0189 C   0  0  0  0  0  0  0  0  0  0  0  0
    1.7386   -8.1468   40.8715 N   0  0  0  0  0  0  0  0  0  0  0  0
    0.5123   -7.6989   40.5299 C   0  0  0  0  0  0  0  0  0  0  0  0
    0.2450   -6.9804   39.3738 C   0  0  0  0  0  0  0  0  0  0  0  0
   -0.3552   -7.2790   34.1648 C   0  0  0  0  0  0  0  0  0  0  0  0
   -0.8435   -7.3043   32.8337 C   0  0  0  0  0  0  0  0  0  0  0  0
   -1.6753   -8.1120   32.2166 N   0  0  0  0  0  0  0  0  0  0  0  0
   -1.6002   -7.8410   30.8766 N   0  0  0  0  0  0  0  0  0  0  0  0
   -0.7495   -6.8612   30.7067 C   0  0  0  0  0  0  0  0  0  0  0  0
   -0.2504   -6.4582   31.9095 N   0  0  0  0  0  0  0  0  0  0  0  0
   -0.2210   -1.1057   27.9977 N   0  0  0  0  0  0  0  0  0  0  0  0
   -0.0914    2.3410   27.7672 C   0  0  0  0  0  0  0  0  0  0  0  0
   -0.2426    3.5379   27.0636 C   0  0  0  0  0  0  0  0  0  0  0  0
   -1.3512    4.5830   25.5374 H   0  0  0  0  0  0  0  0  0  0  0  0
   -2.7378    2.6165   24.9492 H   0  0  0  0  0  0  0  0  0  0  0  0
   -2.4328    0.4829   26.1598 H   0  0  0  0  0  0  0  0  0  0  0  0
    0.4021   -3.7929   28.4423 H   0  0  0  0  0  0  0  0  0  0  0  0
    1.6096   -2.8569   29.3477 H   0  0  0  0  0  0  0  0  0  0  0  0
   -0.2033   -3.1078   31.1809 H   0  0  0  0  0  0  0  0  0  0  0  0
    1.7017   -5.1938   30.3742 H   0  0  0  0  0  0  0  0  0  0  0  0
    1.9707   -3.8893   31.5312 H   0  0  0  0  0  0  0  0  0  0  0  0
    1.8998   -4.7420   33.8266 H   0  0  0  0  0  0  0  0  0  0  0  0
   -0.0790   -5.9054   37.0363 H   0  0  0  0  0  0  0  0  0  0  0  0
    1.4183   -4.9854   37.2337 H   0  0  0  0  0  0  0  0  0  0  0  0
    3.4320   -6.9542   38.2062 H   0  0  0  0  0  0  0  0  0  0  0  0
    3.7215   -8.2141   40.3178 H   0  0  0  0  0  0  0  0  0  0  0  0
   -0.2798   -7.9358   41.2344 H   0  0  0  0  0  0  0  0  0  0  0  0
   -0.7648   -6.6392   39.1762 H   0  0  0  0  0  0  0  0  0  0  0  0
   -0.6792   -8.0784   34.8277 H   0  0  0  0  0  0  0  0  0  0  0  0
   -0.4776   -6.4157   29.7624 H   0  0  0  0  0  0  0  0  0  0  0  0
    0.2099   -1.3143   27.1110 H   0  0  0  0  0  0  0  0  0  0  0  0
    0.6218    2.2944   28.5867 H   0  0  0  0  0  0  0  0  0  0  0  0
    0.3523    4.4079   27.3310 H   0  0  0  0  0  0  0  0  0  0  0  0
  1  2  2  0
  2  3  1  0
  3  4  2  0
  4  5  1  0
  5  6  2  0
  6  7  1  0
  7  8  2  0
  8  9  1  0
  9 10  1  0
 10 11  1  0
 11 12  1  0
 12 13  2  0
 13 14  1  0
 14 15  1  0
 15 16  1  0
 16 17  1  0
 17 18  2  0
 18 19  1  0
 19 20  2  0
 20 21  1  0
 21 22  2  0
 14 23  2  0
 23 24  1  0
 24 25  2  0
 25 26  1  0
 26 27  2  0
 27 28  1  0
  8 29  1  0
  4 30  1  0
 30 31  2  0
 31  1  1  0
 29  5  1  0
 28 12  1  0
 22 17  1  0
 28 24  1  0
  1 32  1  0
  2 33  1  0
  3 34  1  0
  9 35  1  0
  9 36  1  0
 10 37  1  0
 11 38  1  0
 11 39  1  0
 13 40  1  0
 16 41  1  0
 16 42  1  0
 18 43  1  0
 19 44  1  0
 21 45  1  0
 22 46  1  0
 23 47  1  0
 27 48  1  0
 29 49  1  0
 30 50  1  0
 31 51  1  0
M  END
>  <Energy>  (552) 
60.063843549733619

>  <compound_id>  (552) 
4204

>  <target_id>  (552) 
1

>  <reference_id>  (552) 
144

>  <inspiration_ids>  (552) 
[147, 144]

>  <energy_score>  (552) 
-20.24403188202956

>  <distance_score>  (552) 
0.7848034886360457

>  <path>  (552) 
/opt/xchem-fragalysis-2/maxwin/BulkDock/SCRATCH/505735/C4204-P144/C4204-P144.minimised.mol

>  <scratch_subdir>  (552) 
/opt/xchem-fragalysis-2/maxwin/BulkDock/SCRATCH/505735/C4204-P144

>  <fragmenstein_runtime>  (552) 
6.465862274169922

>  <fragmenstein_outcome>  (552) 
acceptable

>  <fragmenstein_mode>  (552) 
expansion

>  <fragmenstein_error>  (552) 


$$$$
C4205-P147
     RDKit          3D

 50 54  0  0  0  0  0  0  0  0999 V2000
   -1.3018    3.6196   26.7161 C   0  0  0  0  0  0  0  0  0  0  0  0
   -2.1429    2.5771   26.3425 C   0  0  0  0  0  0  0  0  0  0  0  0
   -1.9552    1.3084   26.8930 C   0  0  0  0  0  0  0  0  0  0  0  0
   -0.9450    1.0640   27.8281 C   0  0  0  0  0  0  0  0  0  0  0  0
   -0.8511   -0.2415   28.4689 C   0  0  0  0  0  0  0  0  0  0  0  0
   -1.8123   -0.8749   29.1092 N   0  0  0  0  0  0  0  0  0  0  0  0
   -1.2972   -2.0238   29.6532 N   0  0  0  0  0  0  0  0  0  0  0  0
   -0.0256   -2.0966   29.3204 C   0  0  0  0  0  0  0  0  0  0  0  0
    0.9642   -3.1188   29.7816 C   0  0  0  0  0  0  0  0  0  0  0  0
    0.3632   -3.9829   30.8105 N   0  0  0  0  0  0  0  0  0  0  0  0
    1.3339   -4.6376   31.6769 C   0  0  0  0  0  0  0  0  0  0  0  0
    0.6622   -5.5321   32.7013 C   0  0  0  0  0  0  0  0  0  0  0  0
    0.8225   -5.3984   34.0443 C   0  0  0  0  0  0  0  0  0  0  0  0
    0.1324   -6.3022   34.9912 C   0  0  0  0  0  0  0  0  0  0  0  0
    0.2242   -6.0430   36.5023 C   0  0  0  0  0  0  0  0  0  0  0  0
    1.2490   -6.8479   37.2902 C   0  0  0  0  0  0  0  0  0  0  0  0
    0.8897   -7.6300   38.4001 C   0  0  0  0  0  0  0  0  0  0  0  0
    1.8722   -8.3224   39.1029 C   0  0  0  0  0  0  0  0  0  0  0  0
    3.1846   -8.2628   38.7995 N   0  0  0  0  0  0  0  0  0  0  0  0
    3.5198   -7.4867   37.7511 C   0  0  0  0  0  0  0  0  0  0  0  0
    2.6075   -6.7747   36.9807 C   0  0  0  0  0  0  0  0  0  0  0  0
   -0.6841   -7.2630   34.5004 C   0  0  0  0  0  0  0  0  0  0  0  0
   -0.8520   -7.4290   33.0978 C   0  0  0  0  0  0  0  0  0  0  0  0
   -1.5584   -8.2784   32.3822 N   0  0  0  0  0  0  0  0  0  0  0  0
   -1.3416   -8.0077   31.0530 N   0  0  0  0  0  0  0  0  0  0  0  0
   -0.5190   -6.9862   30.9922 C   0  0  0  0  0  0  0  0  0  0  0  0
   -0.1731   -6.5683   32.2523 N   0  0  0  0  0  0  0  0  0  0  0  0
    0.2813   -1.0130   28.5359 N   0  0  0  0  0  0  0  0  0  0  0  0
   -0.0937    2.1160   28.1840 C   0  0  0  0  0  0  0  0  0  0  0  0
   -0.2739    3.3887   27.6303 C   0  0  0  0  0  0  0  0  0  0  0  0
   -1.4624    4.6150   26.3085 H   0  0  0  0  0  0  0  0  0  0  0  0
   -2.9559    2.7514   25.6408 H   0  0  0  0  0  0  0  0  0  0  0  0
   -2.6044    0.4961   26.5884 H   0  0  0  0  0  0  0  0  0  0  0  0
    1.2926   -3.7294   28.9342 H   0  0  0  0  0  0  0  0  0  0  0  0
    1.8352   -2.5897   30.1866 H   0  0  0  0  0  0  0  0  0  0  0  0
   -0.2726   -3.4006   31.3643 H   0  0  0  0  0  0  0  0  0  0  0  0
    2.0160   -5.2482   31.0738 H   0  0  0  0  0  0  0  0  0  0  0  0
    1.9435   -3.8827   32.1887 H   0  0  0  0  0  0  0  0  0  0  0  0
    1.4428   -4.6102   34.4627 H   0  0  0  0  0  0  0  0  0  0  0  0
   -0.7680   -6.2220   36.9387 H   0  0  0  0  0  0  0  0  0  0  0  0
    0.4183   -4.9770   36.6819 H   0  0  0  0  0  0  0  0  0  0  0  0
   -0.1386   -7.7199   38.7242 H   0  0  0  0  0  0  0  0  0  0  0  0
    1.6121   -8.9663   39.9400 H   0  0  0  0  0  0  0  0  0  0  0  0
    4.5839   -7.4445   37.5357 H   0  0  0  0  0  0  0  0  0  0  0  0
    2.9689   -6.1646   36.1607 H   0  0  0  0  0  0  0  0  0  0  0  0
   -1.2356   -7.9296   35.1549 H   0  0  0  0  0  0  0  0  0  0  0  0
   -0.1635   -6.5139   30.0892 H   0  0  0  0  0  0  0  0  0  0  0  0
    1.1613   -0.8009   28.0934 H   0  0  0  0  0  0  0  0  0  0  0  0
    0.6811    1.9743   28.9318 H   0  0  0  0  0  0  0  0  0  0  0  0
    0.3656    4.2122   27.9381 H   0  0  0  0  0  0  0  0  0  0  0  0
  1  2  2  0
  2  3  1  0
  3  4  2  0
  4  5  1  0
  5  6  2  0
  6  7  1  0
  7  8  2  0
  8  9  1  0
  9 10  1  0
 10 11  1  0
 11 12  1  0
 12 13  2  0
 13 14  1  0
 14 15  1  0
 15 16  1  0
 16 17  2  0
 17 18  1  0
 18 19  2  0
 19 20  1  0
 20 21  2  0
 14 22  2  0
 22 23  1  0
 23 24  2  0
 24 25  1  0
 25 26  2  0
 26 27  1  0
  8 28  1  0
  4 29  1  0
 29 30  2  0
 30  1  1  0
 28  5  1  0
 27 12  1  0
 21 16  1  0
 27 23  1  0
  1 31  1  0
  2 32  1  0
  3 33  1  0
  9 34  1  0
  9 35  1  0
 10 36  1  0
 11 37  1  0
 11 38  1  0
 13 39  1  0
 15 40  1  0
 15 41  1  0
 17 42  1  0
 18 43  1  0
 20 44  1  0
 21 45  1  0
 22 46  1  0
 26 47  1  0
 28 48  1  0
 29 49  1  0
 30 50  1  0
M  END
>  <Energy>  (553) 
64.915597544240271

>  <compound_id>  (553) 
4205

>  <target_id>  (553) 
1

>  <reference_id>  (553) 
147

>  <inspiration_ids>  (553) 
[147, 145]

>  <energy_score>  (553) 
-26.117143050614033

>  <distance_score>  (553) 
0.9270355550698585

>  <path>  (553) 
/opt/xchem-fragalysis-2/maxwin/BulkDock/SCRATCH/505735/C4205-P147/C4205-P147.minimised.mol

>  <scratch_subdir>  (553) 
/opt/xchem-fragalysis-2/maxwin/BulkDock/SCRATCH/505735/C4205-P147

>  <fragmenstein_runtime>  (553) 
9.485177755355835

>  <fragmenstein_outcome>  (553) 
acceptable

>  <fragmenstein_mode>  (553) 
expansion

>  <fragmenstein_error>  (553) 


$$$$
C4205-P145
     RDKit          3D

 50 54  0  0  0  0  0  0  0  0999 V2000
   -1.4404    3.7431   26.5688 C   0  0  0  0  0  0  0  0  0  0  0  0
   -2.1435    2.6268   26.1259 C   0  0  0  0  0  0  0  0  0  0  0  0
   -1.9477    1.3915   26.7474 C   0  0  0  0  0  0  0  0  0  0  0  0
   -1.0850    1.2670   27.8374 C   0  0  0  0  0  0  0  0  0  0  0  0
   -1.0237    0.0342   28.6043 C   0  0  0  0  0  0  0  0  0  0  0  0
   -1.6207   -0.1823   29.7587 N   0  0  0  0  0  0  0  0  0  0  0  0
   -1.2274   -1.4041   30.2285 N   0  0  0  0  0  0  0  0  0  0  0  0
   -0.3775   -1.9171   29.3641 C   0  0  0  0  0  0  0  0  0  0  0  0
    0.4159   -3.1621   29.5729 C   0  0  0  0  0  0  0  0  0  0  0  0
   -0.1196   -3.9071   30.7361 N   0  0  0  0  0  0  0  0  0  0  0  0
    0.9229   -4.3560   31.6559 C   0  0  0  0  0  0  0  0  0  0  0  0
    0.4144   -5.3289   32.7052 C   0  0  0  0  0  0  0  0  0  0  0  0
    0.6215   -5.1882   34.0409 C   0  0  0  0  0  0  0  0  0  0  0  0
    0.0969   -6.1821   35.0076 C   0  0  0  0  0  0  0  0  0  0  0  0
    0.2587   -5.9308   36.5140 C   0  0  0  0  0  0  0  0  0  0  0  0
    1.2477   -6.8143   37.2638 C   0  0  0  0  0  0  0  0  0  0  0  0
    0.8916   -7.5060   38.4332 C   0  0  0  0  0  0  0  0  0  0  0  0
    1.8425   -8.2811   39.0913 C   0  0  0  0  0  0  0  0  0  0  0  0
    3.1271   -8.3767   38.6928 N   0  0  0  0  0  0  0  0  0  0  0  0
    3.4653   -7.6788   37.5915 C   0  0  0  0  0  0  0  0  0  0  0  0
    2.5790   -6.9011   36.8558 C   0  0  0  0  0  0  0  0  0  0  0  0
   -0.6228   -7.2315   34.5468 C   0  0  0  0  0  0  0  0  0  0  0  0
   -0.8402   -7.3995   33.1525 C   0  0  0  0  0  0  0  0  0  0  0  0
   -1.4685   -8.3223   32.4567 N   0  0  0  0  0  0  0  0  0  0  0  0
   -1.3224   -8.0284   31.1236 N   0  0  0  0  0  0  0  0  0  0  0  0
   -0.6212   -6.9241   31.0400 C   0  0  0  0  0  0  0  0  0  0  0  0
   -0.3036   -6.4593   32.2884 N   0  0  0  0  0  0  0  0  0  0  0  0
   -0.2959   -1.0821   28.2787 N   0  0  0  0  0  0  0  0  0  0  0  0
   -0.3709    2.3911   28.2652 C   0  0  0  0  0  0  0  0  0  0  0  0
   -0.5435    3.6234   27.6290 C   0  0  0  0  0  0  0  0  0  0  0  0
   -1.6125    4.7116   26.1043 H   0  0  0  0  0  0  0  0  0  0  0  0
   -2.8601    2.7215   25.3126 H   0  0  0  0  0  0  0  0  0  0  0  0
   -2.4970    0.5265   26.3926 H   0  0  0  0  0  0  0  0  0  0  0  0
    0.3554   -3.8003   28.6865 H   0  0  0  0  0  0  0  0  0  0  0  0
    1.4645   -2.8787   29.7222 H   0  0  0  0  0  0  0  0  0  0  0  0
   -0.7294   -3.2502   31.2421 H   0  0  0  0  0  0  0  0  0  0  0  0
    1.6932   -4.8534   31.0695 H   0  0  0  0  0  0  0  0  0  0  0  0
    1.3902   -3.4883   32.1373 H   0  0  0  0  0  0  0  0  0  0  0  0
    1.1594   -4.3317   34.4394 H   0  0  0  0  0  0  0  0  0  0  0  0
   -0.7293   -6.0355   36.9785 H   0  0  0  0  0  0  0  0  0  0  0  0
    0.5434   -4.8852   36.6907 H   0  0  0  0  0  0  0  0  0  0  0  0
   -0.1091   -7.4467   38.8410 H   0  0  0  0  0  0  0  0  0  0  0  0
    1.5833   -8.8573   39.9760 H   0  0  0  0  0  0  0  0  0  0  0  0
    4.5090   -7.7603   37.3010 H   0  0  0  0  0  0  0  0  0  0  0  0
    2.9396   -6.3633   35.9858 H   0  0  0  0  0  0  0  0  0  0  0  0
   -1.0553   -7.9698   35.2155 H   0  0  0  0  0  0  0  0  0  0  0  0
   -0.3256   -6.4339   30.1255 H   0  0  0  0  0  0  0  0  0  0  0  0
    0.2204   -1.2216   27.4231 H   0  0  0  0  0  0  0  0  0  0  0  0
    0.2843    2.3275   29.1306 H   0  0  0  0  0  0  0  0  0  0  0  0
   -0.0162    4.5026   27.9908 H   0  0  0  0  0  0  0  0  0  0  0  0
  1  2  2  0
  2  3  1  0
  3  4  2  0
  4  5  1  0
  5  6  2  0
  6  7  1  0
  7  8  2  0
  8  9  1  0
  9 10  1  0
 10 11  1  0
 11 12  1  0
 12 13  2  0
 13 14  1  0
 14 15  1  0
 15 16  1  0
 16 17  2  0
 17 18  1  0
 18 19  2  0
 19 20  1  0
 20 21  2  0
 14 22  2  0
 22 23  1  0
 23 24  2  0
 24 25  1  0
 25 26  2  0
 26 27  1  0
  8 28  1  0
  4 29  1  0
 29 30  2  0
 30  1  1  0
 28  5  1  0
 27 12  1  0
 21 16  1  0
 27 23  1  0
  1 31  1  0
  2 32  1  0
  3 33  1  0
  9 34  1  0
  9 35  1  0
 10 36  1  0
 11 37  1  0
 11 38  1  0
 13 39  1  0
 15 40  1  0
 15 41  1  0
 17 42  1  0
 18 43  1  0
 20 44  1  0
 21 45  1  0
 22 46  1  0
 26 47  1  0
 28 48  1  0
 29 49  1  0
 30 50  1  0
M  END
>  <Energy>  (554) 
67.28719800493279

>  <compound_id>  (554) 
4205

>  <target_id>  (554) 
1

>  <reference_id>  (554) 
145

>  <inspiration_ids>  (554) 
[147, 145]

>  <energy_score>  (554) 
-23.745542589921115

>  <distance_score>  (554) 
1.0323962897355852

>  <path>  (554) 
/opt/xchem-fragalysis-2/maxwin/BulkDock/SCRATCH/505735/C4205-P145/C4205-P145.minimised.mol

>  <scratch_subdir>  (554) 
/opt/xchem-fragalysis-2/maxwin/BulkDock/SCRATCH/505735/C4205-P145

>  <fragmenstein_runtime>  (554) 
9.692885160446167

>  <fragmenstein_outcome>  (554) 
too moved

>  <fragmenstein_mode>  (554) 
expansion

>  <fragmenstein_error>  (554) 


$$$$
C4206-P147
     RDKit          3D

 51 56  0  0  0  0  0  0  0  0999 V2000
    5.1348   -7.5234   34.7589 O   0  0  0  0  0  0  0  0  0  0  0  0
    4.2617   -7.6154   35.6117 C   0  0  0  0  0  0  0  0  0  0  0  0
    3.0333   -6.9961   35.4569 N   0  0  0  0  0  0  0  0  0  0  0  0
    2.1711   -7.0522   36.4202 C   0  0  0  0  0  0  0  0  0  0  0  0
    0.6488   -6.1694   36.2464 S   0  0  0  0  0  0  0  0  0  0  0  0
    0.3007   -6.3354   34.5571 C   0  0  0  0  0  0  0  0  0  0  0  0
    0.9800   -5.4694   33.5901 C   0  0  0  0  0  0  0  0  0  0  0  0
    0.7420   -5.6096   32.2661 C   0  0  0  0  0  0  0  0  0  0  0  0
    1.4230   -4.7784   31.2105 C   0  0  0  0  0  0  0  0  0  0  0  0
    0.5368   -3.7331   30.7345 N   0  0  0  0  0  0  0  0  0  0  0  0
    1.0924   -2.9659   29.6177 C   0  0  0  0  0  0  0  0  0  0  0  0
    0.0702   -1.9983   29.1334 C   0  0  0  0  0  0  0  0  0  0  0  0
   -1.2319   -2.1822   29.0955 N   0  0  0  0  0  0  0  0  0  0  0  0
   -1.8011   -1.0428   28.5832 N   0  0  0  0  0  0  0  0  0  0  0  0
   -0.8468   -0.1706   28.3235 C   0  0  0  0  0  0  0  0  0  0  0  0
   -1.0053    1.1735   27.7781 C   0  0  0  0  0  0  0  0  0  0  0  0
   -2.0090    1.4189   26.8341 C   0  0  0  0  0  0  0  0  0  0  0  0
   -2.2302    2.6990   26.3259 C   0  0  0  0  0  0  0  0  0  0  0  0
   -1.4345    3.7557   26.7546 C   0  0  0  0  0  0  0  0  0  0  0  0
   -0.4212    3.5293   27.6853 C   0  0  0  0  0  0  0  0  0  0  0  0
   -0.2046    2.2441   28.1941 C   0  0  0  0  0  0  0  0  0  0  0  0
    0.3529   -0.7510   28.6468 N   0  0  0  0  0  0  0  0  0  0  0  0
   -0.1632   -6.6057   31.8795 N   0  0  0  0  0  0  0  0  0  0  0  0
   -0.5760   -7.0258   30.6466 C   0  0  0  0  0  0  0  0  0  0  0  0
   -1.4280   -8.0163   30.7580 N   0  0  0  0  0  0  0  0  0  0  0  0
   -1.6075   -8.2597   32.0955 N   0  0  0  0  0  0  0  0  0  0  0  0
   -0.8488   -7.4201   32.7646 C   0  0  0  0  0  0  0  0  0  0  0  0
   -0.6031   -7.2484   34.1492 C   0  0  0  0  0  0  0  0  0  0  0  0
    2.3049   -7.7172   37.6129 N   0  0  0  0  0  0  0  0  0  0  0  0
    3.4488   -8.4058   37.8046 C   0  0  0  0  0  0  0  0  0  0  0  0
    3.8114   -9.2357   38.8942 C   0  0  0  0  0  0  0  0  0  0  0  0
    5.0426   -9.8291   38.6810 C   0  0  0  0  0  0  0  0  0  0  0  0
    5.7343   -9.3621   37.1810 S   0  0  0  0  0  0  0  0  0  0  0  0
    4.4025   -8.3745   36.8270 C   0  0  0  0  0  0  0  0  0  0  0  0
    1.6721   -4.7178   33.9611 H   0  0  0  0  0  0  0  0  0  0  0  0
    1.7591   -5.4220   30.3885 H   0  0  0  0  0  0  0  0  0  0  0  0
    2.3277   -4.3207   31.6302 H   0  0  0  0  0  0  0  0  0  0  0  0
   -0.3702   -4.0892   30.4273 H   0  0  0  0  0  0  0  0  0  0  0  0
    1.3624   -3.6316   28.7898 H   0  0  0  0  0  0  0  0  0  0  0  0
    1.9933   -2.4331   29.9417 H   0  0  0  0  0  0  0  0  0  0  0  0
   -2.6223    0.5958   26.4824 H   0  0  0  0  0  0  0  0  0  0  0  0
   -3.0323    2.8699   25.6110 H   0  0  0  0  0  0  0  0  0  0  0  0
   -1.6198    4.7581   26.3762 H   0  0  0  0  0  0  0  0  0  0  0  0
    0.1802    4.3637   28.0374 H   0  0  0  0  0  0  0  0  0  0  0  0
    0.5646    2.1079   28.9483 H   0  0  0  0  0  0  0  0  0  0  0  0
    1.2615   -0.3361   28.5186 H   0  0  0  0  0  0  0  0  0  0  0  0
   -0.2452   -6.5762   29.7263 H   0  0  0  0  0  0  0  0  0  0  0  0
   -1.1299   -7.8973   34.8396 H   0  0  0  0  0  0  0  0  0  0  0  0
    1.5209   -7.7346   38.2576 H   0  0  0  0  0  0  0  0  0  0  0  0
    3.2052   -9.4226   39.7733 H   0  0  0  0  0  0  0  0  0  0  0  0
    5.5675  -10.5165   39.3314 H   0  0  0  0  0  0  0  0  0  0  0  0
  1  2  2  0
  2  3  1  0
  3  4  2  0
  4  5  1  0
  5  6  1  0
  6  7  1  0
  7  8  2  0
  8  9  1  0
  9 10  1  0
 10 11  1  0
 11 12  1  0
 12 13  2  0
 13 14  1  0
 14 15  2  0
 15 16  1  0
 16 17  2  0
 17 18  1  0
 18 19  2  0
 19 20  1  0
 20 21  2  0
 15 22  1  0
  8 23  1  0
 23 24  1  0
 24 25  2  0
 25 26  1  0
 26 27  2  0
 27 28  1  0
  4 29  1  0
 29 30  1  0
 30 31  1  0
 31 32  2  0
 32 33  1  0
 33 34  1  0
 34  2  1  0
 28  6  2  0
 34 30  2  0
 22 12  1  0
 27 23  1  0
 21 16  1  0
  7 35  1  0
  9 36  1  0
  9 37  1  0
 10 38  1  0
 11 39  1  0
 11 40  1  0
 17 41  1  0
 18 42  1  0
 19 43  1  0
 20 44  1  0
 21 45  1  0
 22 46  1  0
 24 47  1  0
 28 48  1  0
 29 49  1  0
 31 50  1  0
 32 51  1  0
M  END
>  <Energy>  (555) 
-17.366350280827831

>  <compound_id>  (555) 
4206

>  <target_id>  (555) 
1

>  <reference_id>  (555) 
147

>  <inspiration_ids>  (555) 
[147, 148]

>  <energy_score>  (555) 
-62.13918039117101

>  <distance_score>  (555) 
1.0769981398321316

>  <path>  (555) 
/opt/xchem-fragalysis-2/maxwin/BulkDock/SCRATCH/505735/C4206-P147/C4206-P147.minimised.mol

>  <scratch_subdir>  (555) 
/opt/xchem-fragalysis-2/maxwin/BulkDock/SCRATCH/505735/C4206-P147

>  <fragmenstein_runtime>  (555) 
3.0918519496917725

>  <fragmenstein_outcome>  (555) 
too moved

>  <fragmenstein_mode>  (555) 
expansion

>  <fragmenstein_error>  (555) 


$$$$
C4206-P148
     RDKit          3D

 51 56  0  0  0  0  0  0  0  0999 V2000
    5.1681   -7.2199   34.8857 O   0  0  0  0  0  0  0  0  0  0  0  0
    4.2640   -7.4448   35.6802 C   0  0  0  0  0  0  0  0  0  0  0  0
    3.0170   -6.8617   35.5377 N   0  0  0  0  0  0  0  0  0  0  0  0
    2.1192   -7.0524   36.4496 C   0  0  0  0  0  0  0  0  0  0  0  0
    0.5729   -6.2073   36.2950 S   0  0  0  0  0  0  0  0  0  0  0  0
    0.2522   -6.3355   34.5973 C   0  0  0  0  0  0  0  0  0  0  0  0
    0.9472   -5.4455   33.6623 C   0  0  0  0  0  0  0  0  0  0  0  0
    0.7773   -5.5952   32.3296 C   0  0  0  0  0  0  0  0  0  0  0  0
    1.4723   -4.7446   31.2980 C   0  0  0  0  0  0  0  0  0  0  0  0
    0.5648   -3.7427   30.7727 N   0  0  0  0  0  0  0  0  0  0  0  0
    1.1077   -2.9969   29.6363 C   0  0  0  0  0  0  0  0  0  0  0  0
    0.0913   -2.0186   29.1618 C   0  0  0  0  0  0  0  0  0  0  0  0
   -1.2167   -2.1617   29.1823 N   0  0  0  0  0  0  0  0  0  0  0  0
   -1.7725   -1.0177   28.6635 N   0  0  0  0  0  0  0  0  0  0  0  0
   -0.8025   -0.1843   28.3443 C   0  0  0  0  0  0  0  0  0  0  0  0
   -0.9340    1.1492   27.7717 C   0  0  0  0  0  0  0  0  0  0  0  0
   -1.8906    1.3810   26.7783 C   0  0  0  0  0  0  0  0  0  0  0  0
   -2.0743    2.6503   26.2310 C   0  0  0  0  0  0  0  0  0  0  0  0
   -1.2856    3.7075   26.6713 C   0  0  0  0  0  0  0  0  0  0  0  0
   -0.3243    3.4954   27.6584 C   0  0  0  0  0  0  0  0  0  0  0  0
   -0.1462    2.2213   28.2059 C   0  0  0  0  0  0  0  0  0  0  0  0
    0.3911   -0.7949   28.6291 N   0  0  0  0  0  0  0  0  0  0  0  0
   -0.0787   -6.6172   31.9069 N   0  0  0  0  0  0  0  0  0  0  0  0
   -0.3856   -7.0737   30.6582 C   0  0  0  0  0  0  0  0  0  0  0  0
   -1.2407   -8.0640   30.7288 N   0  0  0  0  0  0  0  0  0  0  0  0
   -1.5240   -8.2761   32.0529 N   0  0  0  0  0  0  0  0  0  0  0  0
   -0.8094   -7.4279   32.7585 C   0  0  0  0  0  0  0  0  0  0  0  0
   -0.6279   -7.2550   34.1523 C   0  0  0  0  0  0  0  0  0  0  0  0
    2.2304   -7.8377   37.5688 N   0  0  0  0  0  0  0  0  0  0  0  0
    3.3988   -8.4882   37.7446 C   0  0  0  0  0  0  0  0  0  0  0  0
    3.7659   -9.3833   38.7800 C   0  0  0  0  0  0  0  0  0  0  0  0
    5.0301   -9.9020   38.5659 C   0  0  0  0  0  0  0  0  0  0  0  0
    5.7483   -9.2816   37.1352 S   0  0  0  0  0  0  0  0  0  0  0  0
    4.3868   -8.3232   36.8156 C   0  0  0  0  0  0  0  0  0  0  0  0
    1.5960   -4.6712   34.0640 H   0  0  0  0  0  0  0  0  0  0  0  0
    1.8741   -5.3803   30.4997 H   0  0  0  0  0  0  0  0  0  0  0  0
    2.3358   -4.2442   31.7540 H   0  0  0  0  0  0  0  0  0  0  0  0
   -0.3354   -4.1232   30.4773 H   0  0  0  0  0  0  0  0  0  0  0  0
    1.3532   -3.6774   28.8129 H   0  0  0  0  0  0  0  0  0  0  0  0
    2.0218   -2.4719   29.9356 H   0  0  0  0  0  0  0  0  0  0  0  0
   -2.4923    0.5536   26.4198 H   0  0  0  0  0  0  0  0  0  0  0  0
   -2.8406    2.8148   25.4767 H   0  0  0  0  0  0  0  0  0  0  0  0
   -1.4373    4.7021   26.2592 H   0  0  0  0  0  0  0  0  0  0  0  0
    0.2647    4.3327   28.0242 H   0  0  0  0  0  0  0  0  0  0  0  0
    0.5817    2.0938   29.0018 H   0  0  0  0  0  0  0  0  0  0  0  0
    1.3057   -0.4115   28.4537 H   0  0  0  0  0  0  0  0  0  0  0  0
    0.0178   -6.6471   29.7562 H   0  0  0  0  0  0  0  0  0  0  0  0
   -1.1673   -7.9214   34.8167 H   0  0  0  0  0  0  0  0  0  0  0  0
    1.4299   -7.9369   38.1856 H   0  0  0  0  0  0  0  0  0  0  0  0
    3.1406   -9.6661   39.6194 H   0  0  0  0  0  0  0  0  0  0  0  0
    5.5660  -10.6157   39.1778 H   0  0  0  0  0  0  0  0  0  0  0  0
  1  2  2  0
  2  3  1  0
  3  4  2  0
  4  5  1  0
  5  6  1  0
  6  7  1  0
  7  8  2  0
  8  9  1  0
  9 10  1  0
 10 11  1  0
 11 12  1  0
 12 13  2  0
 13 14  1  0
 14 15  2  0
 15 16  1  0
 16 17  2  0
 17 18  1  0
 18 19  2  0
 19 20  1  0
 20 21  2  0
 15 22  1  0
  8 23  1  0
 23 24  1  0
 24 25  2  0
 25 26  1  0
 26 27  2  0
 27 28  1  0
  4 29  1  0
 29 30  1  0
 30 31  1  0
 31 32  2  0
 32 33  1  0
 33 34  1  0
 34  2  1  0
 28  6  2  0
 34 30  2  0
 22 12  1  0
 27 23  1  0
 21 16  1  0
  7 35  1  0
  9 36  1  0
  9 37  1  0
 10 38  1  0
 11 39  1  0
 11 40  1  0
 17 41  1  0
 18 42  1  0
 19 43  1  0
 20 44  1  0
 21 45  1  0
 22 46  1  0
 24 47  1  0
 28 48  1  0
 29 49  1  0
 31 50  1  0
 32 51  1  0
M  END
>  <Energy>  (556) 
-16.259409084783531

>  <compound_id>  (556) 
4206

>  <target_id>  (556) 
1

>  <reference_id>  (556) 
148

>  <inspiration_ids>  (556) 
[147, 148]

>  <energy_score>  (556) 
-61.03223919512652

>  <distance_score>  (556) 
1.085530775533249

>  <path>  (556) 
/opt/xchem-fragalysis-2/maxwin/BulkDock/SCRATCH/505735/C4206-P148/C4206-P148.minimised.mol

>  <scratch_subdir>  (556) 
/opt/xchem-fragalysis-2/maxwin/BulkDock/SCRATCH/505735/C4206-P148

>  <fragmenstein_runtime>  (556) 
3.0131325721740723

>  <fragmenstein_outcome>  (556) 
too moved

>  <fragmenstein_mode>  (556) 
expansion

>  <fragmenstein_error>  (556) 


$$$$
C4207-P147
     RDKit          3D

 50 55  0  0  0  0  0  0  0  0999 V2000
    5.2430   -8.2959   35.4569 O   0  0  0  0  0  0  0  0  0  0  0  0
    4.1778   -7.9809   35.9587 C   0  0  0  0  0  0  0  0  0  0  0  0
    3.1597   -7.4920   35.1746 N   0  0  0  0  0  0  0  0  0  0  0  0
    2.0034   -7.1476   35.6892 C   0  0  0  0  0  0  0  0  0  0  0  0
    1.0330   -6.6476   34.6256 C   0  0  0  0  0  0  0  0  0  0  0  0
    1.5077   -5.6938   33.6111 C   0  0  0  0  0  0  0  0  0  0  0  0
    0.9578   -5.6780   32.3747 C   0  0  0  0  0  0  0  0  0  0  0  0
    1.4746   -4.8106   31.2512 C   0  0  0  0  0  0  0  0  0  0  0  0
    0.4240   -3.9850   30.6778 N   0  0  0  0  0  0  0  0  0  0  0  0
    0.8872   -3.1670   29.5462 C   0  0  0  0  0  0  0  0  0  0  0  0
   -0.0908   -2.0787   29.2487 C   0  0  0  0  0  0  0  0  0  0  0  0
   -1.2881   -1.9184   29.7719 N   0  0  0  0  0  0  0  0  0  0  0  0
   -1.8025   -0.7370   29.2988 N   0  0  0  0  0  0  0  0  0  0  0  0
   -0.9140   -0.1801   28.5022 C   0  0  0  0  0  0  0  0  0  0  0  0
   -1.0144    1.1150   27.8472 C   0  0  0  0  0  0  0  0  0  0  0  0
   -1.9828    1.3296   26.8633 C   0  0  0  0  0  0  0  0  0  0  0  0
   -2.1673    2.5914   26.2962 C   0  0  0  0  0  0  0  0  0  0  0  0
   -1.3636    3.6526   26.7007 C   0  0  0  0  0  0  0  0  0  0  0  0
   -0.3760    3.4487   27.6643 C   0  0  0  0  0  0  0  0  0  0  0  0
   -0.2001    2.1842   28.2357 C   0  0  0  0  0  0  0  0  0  0  0  0
    0.1633   -1.0218   28.4120 N   0  0  0  0  0  0  0  0  0  0  0  0
   -0.0999   -6.5677   32.1388 N   0  0  0  0  0  0  0  0  0  0  0  0
   -0.7377   -6.9319   30.9842 C   0  0  0  0  0  0  0  0  0  0  0  0
   -1.6430   -7.8508   31.2282 N   0  0  0  0  0  0  0  0  0  0  0  0
   -1.6228   -8.1011   32.5807 N   0  0  0  0  0  0  0  0  0  0  0  0
   -0.6832   -7.3559   33.1229 C   0  0  0  0  0  0  0  0  0  0  0  0
   -0.0919   -7.3647   34.4231 C   0  0  0  0  0  0  0  0  0  0  0  0
    1.6727   -7.2811   37.0298 N   0  0  0  0  0  0  0  0  0  0  0  0
    2.6265   -7.7928   37.8488 C   0  0  0  0  0  0  0  0  0  0  0  0
    2.5250   -8.1034   39.2221 C   0  0  0  0  0  0  0  0  0  0  0  0
    3.7024   -8.6238   39.7226 C   0  0  0  0  0  0  0  0  0  0  0  0
    4.9125   -8.7368   38.5133 S   0  0  0  0  0  0  0  0  0  0  0  0
    3.8526   -8.1136   37.3458 C   0  0  0  0  0  0  0  0  0  0  0  0
    2.3567   -5.0673   33.8721 H   0  0  0  0  0  0  0  0  0  0  0  0
    2.2904   -4.1740   31.6158 H   0  0  0  0  0  0  0  0  0  0  0  0
    1.8975   -5.4608   30.4758 H   0  0  0  0  0  0  0  0  0  0  0  0
    0.0380   -3.3488   31.3803 H   0  0  0  0  0  0  0  0  0  0  0  0
    1.8532   -2.7043   29.7822 H   0  0  0  0  0  0  0  0  0  0  0  0
    1.0148   -3.7997   28.6622 H   0  0  0  0  0  0  0  0  0  0  0  0
   -2.6027    0.5035   26.5357 H   0  0  0  0  0  0  0  0  0  0  0  0
   -2.9504    2.7476   25.5573 H   0  0  0  0  0  0  0  0  0  0  0  0
   -1.5242    4.6423   26.2794 H   0  0  0  0  0  0  0  0  0  0  0  0
    0.2318    4.2862   27.9972 H   0  0  0  0  0  0  0  0  0  0  0  0
    0.5406    2.0583   29.0205 H   0  0  0  0  0  0  0  0  0  0  0  0
    0.9735   -0.8748   27.8311 H   0  0  0  0  0  0  0  0  0  0  0  0
   -0.5052   -6.5095   30.0182 H   0  0  0  0  0  0  0  0  0  0  0  0
   -0.4234   -8.1344   35.1114 H   0  0  0  0  0  0  0  0  0  0  0  0
    0.7416   -7.0423   37.3540 H   0  0  0  0  0  0  0  0  0  0  0  0
    1.6396   -7.9749   39.8328 H   0  0  0  0  0  0  0  0  0  0  0  0
    3.9060   -8.9531   40.7330 H   0  0  0  0  0  0  0  0  0  0  0  0
  1  2  2  0
  2  3  1  0
  3  4  2  0
  4  5  1  0
  5  6  1  0
  6  7  2  0
  7  8  1  0
  8  9  1  0
  9 10  1  0
 10 11  1  0
 11 12  2  0
 12 13  1  0
 13 14  2  0
 14 15  1  0
 15 16  2  0
 16 17  1  0
 17 18  2  0
 18 19  1  0
 19 20  2  0
 14 21  1  0
  7 22  1  0
 22 23  1  0
 23 24  2  0
 24 25  1  0
 25 26  2  0
 26 27  1  0
  4 28  1  0
 28 29  1  0
 29 30  1  0
 30 31  2  0
 31 32  1  0
 32 33  1  0
 33  2  1  0
 27  5  2  0
 33 29  2  0
 21 11  1  0
 26 22  1  0
 20 15  1  0
  6 34  1  0
  8 35  1  0
  8 36  1  0
  9 37  1  0
 10 38  1  0
 10 39  1  0
 16 40  1  0
 17 41  1  0
 18 42  1  0
 19 43  1  0
 20 44  1  0
 21 45  1  0
 23 46  1  0
 27 47  1  0
 28 48  1  0
 30 49  1  0
 31 50  1  0
M  END
>  <Energy>  (557) 
27.687537955648793

>  <compound_id>  (557) 
4207

>  <target_id>  (557) 
1

>  <reference_id>  (557) 
147

>  <inspiration_ids>  (557) 
[147, 149]

>  <energy_score>  (557) 
-60.24043094069813

>  <distance_score>  (557) 
1.260502405953518

>  <path>  (557) 
/opt/xchem-fragalysis-2/maxwin/BulkDock/SCRATCH/505735/C4207-P147/C4207-P147.minimised.mol

>  <scratch_subdir>  (557) 
/opt/xchem-fragalysis-2/maxwin/BulkDock/SCRATCH/505735/C4207-P147

>  <fragmenstein_runtime>  (557) 
3.5779078006744385

>  <fragmenstein_outcome>  (557) 
too moved

>  <fragmenstein_mode>  (557) 
expansion

>  <fragmenstein_error>  (557) 


$$$$
C4207-P149
     RDKit          3D

 50 55  0  0  0  0  0  0  0  0999 V2000
    5.3345   -7.9154   35.5734 O   0  0  0  0  0  0  0  0  0  0  0  0
    4.2115   -7.7942   36.0327 C   0  0  0  0  0  0  0  0  0  0  0  0
    3.1833   -7.3241   35.2518 N   0  0  0  0  0  0  0  0  0  0  0  0
    1.9617   -7.2141   35.7164 C   0  0  0  0  0  0  0  0  0  0  0  0
    0.9821   -6.7238   34.6527 C   0  0  0  0  0  0  0  0  0  0  0  0
    1.4130   -5.7070   33.6688 C   0  0  0  0  0  0  0  0  0  0  0  0
    0.8663   -5.6802   32.4303 C   0  0  0  0  0  0  0  0  0  0  0  0
    1.3071   -4.7577   31.3110 C   0  0  0  0  0  0  0  0  0  0  0  0
    0.1837   -4.0089   30.7551 N   0  0  0  0  0  0  0  0  0  0  0  0
    0.5171   -3.2855   29.5106 C   0  0  0  0  0  0  0  0  0  0  0  0
   -0.2677   -2.0176   29.4325 C   0  0  0  0  0  0  0  0  0  0  0  0
   -0.8336   -1.4044   30.4502 N   0  0  0  0  0  0  0  0  0  0  0  0
   -1.2629   -0.1784   30.0194 N   0  0  0  0  0  0  0  0  0  0  0  0
   -0.9750   -0.0583   28.7393 C   0  0  0  0  0  0  0  0  0  0  0  0
   -1.1212    1.1484   27.9391 C   0  0  0  0  0  0  0  0  0  0  0  0
   -1.8807    1.1694   26.7686 C   0  0  0  0  0  0  0  0  0  0  0  0
   -2.1015    2.3709   26.0875 C   0  0  0  0  0  0  0  0  0  0  0  0
   -1.5316    3.5540   26.5513 C   0  0  0  0  0  0  0  0  0  0  0  0
   -0.7478    3.5402   27.7008 C   0  0  0  0  0  0  0  0  0  0  0  0
   -0.5487    2.3440   28.3926 C   0  0  0  0  0  0  0  0  0  0  0  0
   -0.4465   -1.2496   28.3099 N   0  0  0  0  0  0  0  0  0  0  0  0
   -0.1386   -6.6188   32.1737 N   0  0  0  0  0  0  0  0  0  0  0  0
   -0.7140   -7.0102   31.0005 C   0  0  0  0  0  0  0  0  0  0  0  0
   -1.6131   -7.9367   31.2207 N   0  0  0  0  0  0  0  0  0  0  0  0
   -1.6263   -8.1936   32.5680 N   0  0  0  0  0  0  0  0  0  0  0  0
   -0.7081   -7.4424   33.1345 C   0  0  0  0  0  0  0  0  0  0  0  0
   -0.1196   -7.4725   34.4324 C   0  0  0  0  0  0  0  0  0  0  0  0
    1.5815   -7.5769   37.0022 N   0  0  0  0  0  0  0  0  0  0  0  0
    2.5517   -8.0613   37.8173 C   0  0  0  0  0  0  0  0  0  0  0  0
    2.4189   -8.5579   39.1327 C   0  0  0  0  0  0  0  0  0  0  0  0
    3.6287   -8.9754   39.6512 C   0  0  0  0  0  0  0  0  0  0  0  0
    4.9043   -8.7835   38.5206 S   0  0  0  0  0  0  0  0  0  0  0  0
    3.8344   -8.1518   37.3661 C   0  0  0  0  0  0  0  0  0  0  0  0
    2.2226   -5.0412   33.9562 H   0  0  0  0  0  0  0  0  0  0  0  0
    2.0777   -4.0641   31.6683 H   0  0  0  0  0  0  0  0  0  0  0  0
    1.7594   -5.3681   30.5210 H   0  0  0  0  0  0  0  0  0  0  0  0
   -0.1120   -3.2970   31.4347 H   0  0  0  0  0  0  0  0  0  0  0  0
    1.5811   -3.0220   29.4827 H   0  0  0  0  0  0  0  0  0  0  0  0
    0.2950   -3.9257   28.6527 H   0  0  0  0  0  0  0  0  0  0  0  0
   -2.3404    0.2562   26.4031 H   0  0  0  0  0  0  0  0  0  0  0  0
   -2.7413    2.3940   25.2093 H   0  0  0  0  0  0  0  0  0  0  0  0
   -1.7268    4.4906   26.0344 H   0  0  0  0  0  0  0  0  0  0  0  0
   -0.3302    4.4665   28.0874 H   0  0  0  0  0  0  0  0  0  0  0  0
    0.0256    2.3577   29.3166 H   0  0  0  0  0  0  0  0  0  0  0  0
   -0.1825   -1.4661   27.3609 H   0  0  0  0  0  0  0  0  0  0  0  0
   -0.4501   -6.5989   30.0386 H   0  0  0  0  0  0  0  0  0  0  0  0
   -0.4313   -8.2790   35.0911 H   0  0  0  0  0  0  0  0  0  0  0  0
    0.5975   -7.5975   37.2546 H   0  0  0  0  0  0  0  0  0  0  0  0
    1.4898   -8.6160   39.6868 H   0  0  0  0  0  0  0  0  0  0  0  0
    3.8257   -9.3887   40.6314 H   0  0  0  0  0  0  0  0  0  0  0  0
  1  2  2  0
  2  3  1  0
  3  4  2  0
  4  5  1  0
  5  6  1  0
  6  7  2  0
  7  8  1  0
  8  9  1  0
  9 10  1  0
 10 11  1  0
 11 12  2  0
 12 13  1  0
 13 14  2  0
 14 15  1  0
 15 16  2  0
 16 17  1  0
 17 18  2  0
 18 19  1  0
 19 20  2  0
 14 21  1  0
  7 22  1  0
 22 23  1  0
 23 24  2  0
 24 25  1  0
 25 26  2  0
 26 27  1  0
  4 28  1  0
 28 29  1  0
 29 30  1  0
 30 31  2  0
 31 32  1  0
 32 33  1  0
 33  2  1  0
 27  5  2  0
 33 29  2  0
 21 11  1  0
 26 22  1  0
 20 15  1  0
  6 34  1  0
  8 35  1  0
  8 36  1  0
  9 37  1  0
 10 38  1  0
 10 39  1  0
 16 40  1  0
 17 41  1  0
 18 42  1  0
 19 43  1  0
 20 44  1  0
 21 45  1  0
 23 46  1  0
 27 47  1  0
 28 48  1  0
 30 49  1  0
 31 50  1  0
M  END
>  <Energy>  (558) 
27.391653348503564

>  <compound_id>  (558) 
4207

>  <target_id>  (558) 
1

>  <reference_id>  (558) 
149

>  <inspiration_ids>  (558) 
[147, 149]

>  <energy_score>  (558) 
-60.53631554784329

>  <distance_score>  (558) 
1.362559513146857

>  <path>  (558) 
/opt/xchem-fragalysis-2/maxwin/BulkDock/SCRATCH/505735/C4207-P149/C4207-P149.minimised.mol

>  <scratch_subdir>  (558) 
/opt/xchem-fragalysis-2/maxwin/BulkDock/SCRATCH/505735/C4207-P149

>  <fragmenstein_runtime>  (558) 
3.936427116394043

>  <fragmenstein_outcome>  (558) 
too moved

>  <fragmenstein_mode>  (558) 
expansion

>  <fragmenstein_error>  (558) 


$$$$
C4208-P147
     RDKit          3D

 55 59  0  0  0  0  0  0  0  0999 V2000
    1.0728   -4.8347   37.0300 O   0  0  0  0  0  0  0  0  0  0  0  0
   -0.2079   -5.4653   36.7660 S   0  0  0  0  0  0  0  0  0  0  0  0
   -1.4147   -4.6628   36.7258 O   0  0  0  0  0  0  0  0  0  0  0  0
   -0.0675   -6.1466   35.1340 C   0  0  0  0  0  0  0  0  0  0  0  0
    0.6824   -5.3455   34.1262 C   0  0  0  0  0  0  0  0  0  0  0  0
    0.5534   -5.5730   32.7963 C   0  0  0  0  0  0  0  0  0  0  0  0
    1.2489   -4.7441   31.7293 C   0  0  0  0  0  0  0  0  0  0  0  0
    0.2974   -4.0879   30.8409 N   0  0  0  0  0  0  0  0  0  0  0  0
    0.9260   -3.2201   29.8263 C   0  0  0  0  0  0  0  0  0  0  0  0
   -0.0447   -2.1853   29.3476 C   0  0  0  0  0  0  0  0  0  0  0  0
   -1.3282   -2.1191   29.6320 N   0  0  0  0  0  0  0  0  0  0  0  0
   -1.8251   -0.9640   29.0841 N   0  0  0  0  0  0  0  0  0  0  0  0
   -0.8426   -0.3179   28.4904 C   0  0  0  0  0  0  0  0  0  0  0  0
   -0.9240    0.9944   27.8588 C   0  0  0  0  0  0  0  0  0  0  0  0
   -1.9272    1.2496   26.9183 C   0  0  0  0  0  0  0  0  0  0  0  0
   -2.1123    2.5240   26.3795 C   0  0  0  0  0  0  0  0  0  0  0  0
   -1.2738    3.5625   26.7689 C   0  0  0  0  0  0  0  0  0  0  0  0
   -0.2515    3.3213   27.6869 C   0  0  0  0  0  0  0  0  0  0  0  0
   -0.0750    2.0428   28.2298 C   0  0  0  0  0  0  0  0  0  0  0  0
    0.2904   -1.0856   28.5956 N   0  0  0  0  0  0  0  0  0  0  0  0
   -0.2779   -6.6342   32.4185 N   0  0  0  0  0  0  0  0  0  0  0  0
   -0.6089   -7.1309   31.1844 C   0  0  0  0  0  0  0  0  0  0  0  0
   -1.4295   -8.1467   31.3053 N   0  0  0  0  0  0  0  0  0  0  0  0
   -1.6674   -8.3235   32.6484 N   0  0  0  0  0  0  0  0  0  0  0  0
   -0.9710   -7.4335   33.3233 C   0  0  0  0  0  0  0  0  0  0  0  0
   -0.8669   -7.1516   34.7260 C   0  0  0  0  0  0  0  0  0  0  0  0
   -0.4476   -6.4868   38.1379 N   0  0  0  0  0  0  0  0  0  0  0  0
   -0.6889   -5.5677   39.3569 C   0  0  0  0  0  0  0  0  0  0  0  0
   -0.7767   -6.2892   40.7113 C   0  0  0  0  0  0  0  0  0  0  0  0
    0.3207   -7.2309   40.9499 N   0  0  0  0  0  0  0  0  0  0  0  0
    0.4151   -8.1588   39.8082 C   0  0  0  0  0  0  0  0  0  0  0  0
    0.6528   -7.4518   38.4504 C   0  0  0  0  0  0  0  0  0  0  0  0
    1.2912   -4.5243   34.5004 H   0  0  0  0  0  0  0  0  0  0  0  0
    1.9078   -5.3989   31.1476 H   0  0  0  0  0  0  0  0  0  0  0  0
    1.8866   -3.9923   32.2108 H   0  0  0  0  0  0  0  0  0  0  0  0
   -0.3420   -3.4970   31.3825 H   0  0  0  0  0  0  0  0  0  0  0  0
    1.2669   -3.8297   28.9833 H   0  0  0  0  0  0  0  0  0  0  0  0
    1.7929   -2.7000   30.2515 H   0  0  0  0  0  0  0  0  0  0  0  0
   -2.5727    0.4393   26.6000 H   0  0  0  0  0  0  0  0  0  0  0  0
   -2.9210    2.7051   25.6747 H   0  0  0  0  0  0  0  0  0  0  0  0
   -1.4316    4.5622   26.3710 H   0  0  0  0  0  0  0  0  0  0  0  0
    0.3862    4.1415   28.0072 H   0  0  0  0  0  0  0  0  0  0  0  0
    0.6945    1.8945   28.9819 H   0  0  0  0  0  0  0  0  0  0  0  0
    1.1871   -0.8633   28.1937 H   0  0  0  0  0  0  0  0  0  0  0  0
   -0.2428   -6.7186   30.2558 H   0  0  0  0  0  0  0  0  0  0  0  0
   -1.5013   -7.7048   35.4084 H   0  0  0  0  0  0  0  0  0  0  0  0
   -1.6131   -5.0044   39.2065 H   0  0  0  0  0  0  0  0  0  0  0  0
    0.1385   -4.8488   39.4191 H   0  0  0  0  0  0  0  0  0  0  0  0
   -0.7659   -5.5374   41.5094 H   0  0  0  0  0  0  0  0  0  0  0  0
   -1.7249   -6.8157   40.8279 H   0  0  0  0  0  0  0  0  0  0  0  0
    1.1951   -6.7102   41.0164 H   0  0  0  0  0  0  0  0  0  0  0  0
    1.2434   -8.8507   39.9959 H   0  0  0  0  0  0  0  0  0  0  0  0
   -0.4983   -8.7608   39.7674 H   0  0  0  0  0  0  0  0  0  0  0  0
    1.6159   -6.9299   38.4823 H   0  0  0  0  0  0  0  0  0  0  0  0
    0.6925   -8.2010   37.6542 H   0  0  0  0  0  0  0  0  0  0  0  0
  1  2  2  0
  2  3  2  0
  2  4  1  0
  4  5  1  0
  5  6  2  0
  6  7  1  0
  7  8  1  0
  8  9  1  0
  9 10  1  0
 10 11  2  0
 11 12  1  0
 12 13  2  0
 13 14  1  0
 14 15  2  0
 15 16  1  0
 16 17  2  0
 17 18  1  0
 18 19  2  0
 13 20  1  0
  6 21  1  0
 21 22  1  0
 22 23  2  0
 23 24  1  0
 24 25  2  0
 25 26  1  0
  2 27  1  0
 27 28  1  0
 28 29  1  0
 29 30  1  0
 30 31  1  0
 31 32  1  0
 26  4  2  0
 32 27  1  0
 20 10  1  0
 25 21  1  0
 19 14  1  0
  5 33  1  0
  7 34  1  0
  7 35  1  0
  8 36  1  0
  9 37  1  0
  9 38  1  0
 15 39  1  0
 16 40  1  0
 17 41  1  0
 18 42  1  0
 19 43  1  0
 20 44  1  0
 22 45  1  0
 26 46  1  0
 28 47  1  0
 28 48  1  0
 29 49  1  0
 29 50  1  0
 30 51  1  0
 31 52  1  0
 31 53  1  0
 32 54  1  0
 32 55  1  0
M  END
>  <Energy>  (559) 
65.189143800670337

>  <compound_id>  (559) 
4208

>  <target_id>  (559) 
1

>  <reference_id>  (559) 
147

>  <inspiration_ids>  (559) 
[147, 150]

>  <energy_score>  (559) 
-37.359549662516486

>  <distance_score>  (559) 
0.8384894984927995

>  <path>  (559) 
/opt/xchem-fragalysis-2/maxwin/BulkDock/SCRATCH/505735/C4208-P147/C4208-P147.minimised.mol

>  <scratch_subdir>  (559) 
/opt/xchem-fragalysis-2/maxwin/BulkDock/SCRATCH/505735/C4208-P147

>  <fragmenstein_runtime>  (559) 
5.439025640487671

>  <fragmenstein_outcome>  (559) 
acceptable

>  <fragmenstein_mode>  (559) 
expansion

>  <fragmenstein_error>  (559) 


$$$$
C4208-P150
     RDKit          3D

 55 59  0  0  0  0  0  0  0  0999 V2000
    1.4383   -7.3636   36.6333 O   0  0  0  0  0  0  0  0  0  0  0  0
    0.1854   -6.6322   36.6466 S   0  0  0  0  0  0  0  0  0  0  0  0
   -1.0120   -7.2469   37.1565 O   0  0  0  0  0  0  0  0  0  0  0  0
   -0.1313   -6.2755   34.9402 C   0  0  0  0  0  0  0  0  0  0  0  0
    0.5742   -5.2690   34.1271 C   0  0  0  0  0  0  0  0  0  0  0  0
    0.5185   -5.3326   32.7659 C   0  0  0  0  0  0  0  0  0  0  0  0
    1.2091   -4.3653   31.8248 C   0  0  0  0  0  0  0  0  0  0  0  0
    0.2579   -3.7820   30.8864 N   0  0  0  0  0  0  0  0  0  0  0  0
    0.8759   -3.0089   29.7986 C   0  0  0  0  0  0  0  0  0  0  0  0
   -0.0125   -1.8702   29.4148 C   0  0  0  0  0  0  0  0  0  0  0  0
   -1.1292   -1.5128   30.0137 N   0  0  0  0  0  0  0  0  0  0  0  0
   -1.5328   -0.3196   29.4753 N   0  0  0  0  0  0  0  0  0  0  0  0
   -0.6721    0.0404   28.5453 C   0  0  0  0  0  0  0  0  0  0  0  0
   -0.6657    1.2915   27.7957 C   0  0  0  0  0  0  0  0  0  0  0  0
   -1.8152    1.7321   27.1348 C   0  0  0  0  0  0  0  0  0  0  0  0
   -1.8520    2.9510   26.4569 C   0  0  0  0  0  0  0  0  0  0  0  0
   -0.7309    3.7674   26.4547 C   0  0  0  0  0  0  0  0  0  0  0  0
    0.4226    3.3551   27.1203 C   0  0  0  0  0  0  0  0  0  0  0  0
    0.4595    2.1213   27.7816 C   0  0  0  0  0  0  0  0  0  0  0  0
    0.2680   -0.9540   28.4351 N   0  0  0  0  0  0  0  0  0  0  0  0
   -0.2219   -6.3843   32.1904 N   0  0  0  0  0  0  0  0  0  0  0  0
   -0.4256   -6.7573   30.8863 C   0  0  0  0  0  0  0  0  0  0  0  0
   -1.1900   -7.8211   30.8219 N   0  0  0  0  0  0  0  0  0  0  0  0
   -1.5122   -8.1714   32.1063 N   0  0  0  0  0  0  0  0  0  0  0  0
   -0.9280   -7.3198   32.9207 C   0  0  0  0  0  0  0  0  0  0  0  0
   -0.8541   -7.2485   34.3309 C   0  0  0  0  0  0  0  0  0  0  0  0
    0.4543   -5.2937   37.6850 N   0  0  0  0  0  0  0  0  0  0  0  0
   -0.7744   -4.6440   38.2795 C   0  0  0  0  0  0  0  0  0  0  0  0
   -1.2962   -5.3241   39.5790 C   0  0  0  0  0  0  0  0  0  0  0  0
   -0.2913   -5.6681   40.5978 N   0  0  0  0  0  0  0  0  0  0  0  0
    0.7856   -6.4289   39.9453 C   0  0  0  0  0  0  0  0  0  0  0  0
    1.4252   -5.6133   38.8050 C   0  0  0  0  0  0  0  0  0  0  0  0
    1.1358   -4.5028   34.6534 H   0  0  0  0  0  0  0  0  0  0  0  0
    1.9853   -4.9090   31.2762 H   0  0  0  0  0  0  0  0  0  0  0  0
    1.7072   -3.5708   32.3932 H   0  0  0  0  0  0  0  0  0  0  0  0
   -0.3786   -3.1485   31.3838 H   0  0  0  0  0  0  0  0  0  0  0  0
    1.0496   -3.6623   28.9379 H   0  0  0  0  0  0  0  0  0  0  0  0
    1.8389   -2.5911   30.1160 H   0  0  0  0  0  0  0  0  0  0  0  0
   -2.7209    1.1475   27.1681 H   0  0  0  0  0  0  0  0  0  0  0  0
   -2.7716    3.2721   25.9735 H   0  0  0  0  0  0  0  0  0  0  0  0
   -0.7650    4.7334   25.9571 H   0  0  0  0  0  0  0  0  0  0  0  0
    1.2915    4.0086   27.1418 H   0  0  0  0  0  0  0  0  0  0  0  0
    1.3605    1.8435   28.3216 H   0  0  0  0  0  0  0  0  0  0  0  0
    1.0300   -0.9739   27.7769 H   0  0  0  0  0  0  0  0  0  0  0  0
   -0.0163   -6.2249   30.0424 H   0  0  0  0  0  0  0  0  0  0  0  0
   -1.3095   -8.0715   34.8788 H   0  0  0  0  0  0  0  0  0  0  0  0
   -1.5674   -4.5920   37.5258 H   0  0  0  0  0  0  0  0  0  0  0  0
   -0.4998   -3.6065   38.5090 H   0  0  0  0  0  0  0  0  0  0  0  0
   -2.0536   -4.6772   40.0355 H   0  0  0  0  0  0  0  0  0  0  0  0
   -1.8005   -6.2472   39.3224 H   0  0  0  0  0  0  0  0  0  0  0  0
    0.0950   -4.8056   40.9800 H   0  0  0  0  0  0  0  0  0  0  0  0
    1.5506   -6.6528   40.6968 H   0  0  0  0  0  0  0  0  0  0  0  0
    0.4054   -7.3909   39.5836 H   0  0  0  0  0  0  0  0  0  0  0  0
    1.7910   -4.6540   39.1967 H   0  0  0  0  0  0  0  0  0  0  0  0
    2.3180   -6.1162   38.4213 H   0  0  0  0  0  0  0  0  0  0  0  0
  1  2  2  0
  2  3  2  0
  2  4  1  0
  4  5  1  0
  5  6  2  0
  6  7  1  0
  7  8  1  0
  8  9  1  0
  9 10  1  0
 10 11  2  0
 11 12  1  0
 12 13  2  0
 13 14  1  0
 14 15  2  0
 15 16  1  0
 16 17  2  0
 17 18  1  0
 18 19  2  0
 13 20  1  0
  6 21  1  0
 21 22  1  0
 22 23  2  0
 23 24  1  0
 24 25  2  0
 25 26  1  0
  2 27  1  0
 27 28  1  0
 28 29  1  0
 29 30  1  0
 30 31  1  0
 31 32  1  0
 26  4  2  0
 32 27  1  0
 20 10  1  0
 25 21  1  0
 19 14  1  0
  5 33  1  0
  7 34  1  0
  7 35  1  0
  8 36  1  0
  9 37  1  0
  9 38  1  0
 15 39  1  0
 16 40  1  0
 17 41  1  0
 18 42  1  0
 19 43  1  0
 20 44  1  0
 22 45  1  0
 26 46  1  0
 28 47  1  0
 28 48  1  0
 29 49  1  0
 29 50  1  0
 30 51  1  0
 31 52  1  0
 31 53  1  0
 32 54  1  0
 32 55  1  0
M  END
>  <Energy>  (560) 
64.982714704107906

>  <compound_id>  (560) 
4208

>  <target_id>  (560) 
1

>  <reference_id>  (560) 
150

>  <inspiration_ids>  (560) 
[147, 150]

>  <energy_score>  (560) 
-37.56597875907829

>  <distance_score>  (560) 
1.2212667950367235

>  <path>  (560) 
/opt/xchem-fragalysis-2/maxwin/BulkDock/SCRATCH/505735/C4208-P150/C4208-P150.minimised.mol

>  <scratch_subdir>  (560) 
/opt/xchem-fragalysis-2/maxwin/BulkDock/SCRATCH/505735/C4208-P150

>  <fragmenstein_runtime>  (560) 
4.8593668937683105

>  <fragmenstein_outcome>  (560) 
too moved

>  <fragmenstein_mode>  (560) 
expansion

>  <fragmenstein_error>  (560) 


$$$$
C4209-P147
     RDKit          3D

 74 80  0  0  0  0  0  0  0  0999 V2000
    1.6527   -1.6284   33.7973 O   0  0  0  0  0  0  0  0  0  0  0  0
    2.7358   -1.7108   34.3073 C   0  0  0  0  0  0  0  0  0  0  0  0
    3.1141   -1.9227   35.6898 N   0  0  0  0  0  0  0  0  0  0  0  0
    2.3050   -2.1971   36.8705 C   0  0  0  0  0  0  0  0  0  0  0  0
    2.2707   -3.7471   37.1231 C   0  0  0  0  0  0  0  0  0  0  0  0
    2.1493   -4.6437   36.1666 N   0  0  0  0  0  0  0  0  0  0  0  0
    2.1608   -5.8927   36.7472 N   0  0  0  0  0  0  0  0  0  0  0  0
    2.3230   -5.7332   38.0434 C   0  0  0  0  0  0  0  0  0  0  0  0
    2.4088   -6.7759   39.0150 C   0  0  0  0  0  0  0  0  0  0  0  0
    1.9077   -8.0558   38.8998 C   0  0  0  0  0  0  0  0  0  0  0  0
    2.1673   -8.8503   40.0548 C   0  0  0  0  0  0  0  0  0  0  0  0
    2.8736   -8.1564   41.0095 C   0  0  0  0  0  0  0  0  0  0  0  0
    3.1994   -6.5518   40.5192 S   0  0  0  0  0  0  0  0  0  0  0  0
    2.3873   -4.3947   38.3203 N   0  0  0  0  0  0  0  0  0  0  0  0
    0.9107   -1.5178   36.9032 C   0  0  0  0  0  0  0  0  0  0  0  0
    1.1695   -1.1712   38.3827 C   0  0  0  0  0  0  0  0  0  0  0  0
    2.6763   -1.3121   38.0902 C   0  0  0  0  0  0  0  0  0  0  0  0
    4.0345   -1.5442   33.4106 C   0  0  0  0  0  0  0  0  0  0  0  0
    5.5060   -2.3777   34.1950 S   0  0  0  0  0  0  0  0  0  0  0  0
    4.3823    0.2277   33.3751 Cl  0  0  0  0  0  0  0  0  0  0  0  0
    3.9270   -2.1090   31.9636 C   0  0  0  0  0  0  0  0  0  0  0  0
    2.9025   -1.5107   31.0734 N   0  0  0  0  0  0  0  0  0  0  0  0
    2.0184   -2.5108   30.4633 C   0  0  0  0  0  0  0  0  0  0  0  0
    1.4502   -3.2890   31.5504 N   0  0  0  0  0  0  0  0  0  0  0  0
    0.6498   -4.4182   31.1030 C   0  0  0  0  0  0  0  0  0  0  0  0
    0.1613   -5.3252   32.2063 C   0  0  0  0  0  0  0  0  0  0  0  0
    0.2152   -5.0619   33.5300 C   0  0  0  0  0  0  0  0  0  0  0  0
   -0.3272   -6.0164   34.4867 C   0  0  0  0  0  0  0  0  0  0  0  0
   -0.8898   -7.1718   34.0930 C   0  0  0  0  0  0  0  0  0  0  0  0
   -0.9643   -7.4642   32.7087 C   0  0  0  0  0  0  0  0  0  0  0  0
   -1.4679   -8.4739   32.0332 N   0  0  0  0  0  0  0  0  0  0  0  0
   -1.2434   -8.2479   30.6994 N   0  0  0  0  0  0  0  0  0  0  0  0
   -0.6261   -7.0968   30.5940 C   0  0  0  0  0  0  0  0  0  0  0  0
   -0.4268   -6.5410   31.8271 N   0  0  0  0  0  0  0  0  0  0  0  0
    0.9663   -1.8477   29.6266 C   0  0  0  0  0  0  0  0  0  0  0  0
    0.0973   -2.4397   28.8374 N   0  0  0  0  0  0  0  0  0  0  0  0
   -0.6777   -1.4673   28.2649 N   0  0  0  0  0  0  0  0  0  0  0  0
   -0.2309   -0.2829   28.6380 C   0  0  0  0  0  0  0  0  0  0  0  0
   -0.6878    1.0164   28.1436 C   0  0  0  0  0  0  0  0  0  0  0  0
   -1.7067    1.0551   27.1797 C   0  0  0  0  0  0  0  0  0  0  0  0
   -2.1832    2.2668   26.6750 C   0  0  0  0  0  0  0  0  0  0  0  0
   -1.6315    3.4636   27.1183 C   0  0  0  0  0  0  0  0  0  0  0  0
   -0.6088    3.4473   28.0642 C   0  0  0  0  0  0  0  0  0  0  0  0
   -0.1376    2.2316   28.5741 C   0  0  0  0  0  0  0  0  0  0  0  0
    0.7538   -0.4943   29.5676 N   0  0  0  0  0  0  0  0  0  0  0  0
    4.1265   -1.8542   35.7708 H   0  0  0  0  0  0  0  0  0  0  0  0
    1.3657   -8.4101   38.0311 H   0  0  0  0  0  0  0  0  0  0  0  0
    1.8494   -9.8803   40.1751 H   0  0  0  0  0  0  0  0  0  0  0  0
    3.2061   -8.5154   41.9741 H   0  0  0  0  0  0  0  0  0  0  0  0
    2.4990   -3.9878   39.2367 H   0  0  0  0  0  0  0  0  0  0  0  0
    0.8171   -0.6279   36.2688 H   0  0  0  0  0  0  0  0  0  0  0  0
    0.0457   -2.1627   36.7208 H   0  0  0  0  0  0  0  0  0  0  0  0
    0.8402   -0.1788   38.7013 H   0  0  0  0  0  0  0  0  0  0  0  0
    0.7809   -1.9153   39.0870 H   0  0  0  0  0  0  0  0  0  0  0  0
    3.2690   -1.7732   38.8851 H   0  0  0  0  0  0  0  0  0  0  0  0
    3.1531   -0.3595   37.8251 H   0  0  0  0  0  0  0  0  0  0  0  0
    4.9632   -3.6072   34.2244 H   0  0  0  0  0  0  0  0  0  0  0  0
    3.8244   -3.2011   32.0176 H   0  0  0  0  0  0  0  0  0  0  0  0
    4.8897   -1.9535   31.4545 H   0  0  0  0  0  0  0  0  0  0  0  0
    3.3960   -1.0427   30.3124 H   0  0  0  0  0  0  0  0  0  0  0  0
    2.6233   -3.1545   29.8114 H   0  0  0  0  0  0  0  0  0  0  0  0
    0.8950   -2.6533   32.1288 H   0  0  0  0  0  0  0  0  0  0  0  0
   -0.2418   -4.0802   30.5653 H   0  0  0  0  0  0  0  0  0  0  0  0
    1.2621   -5.0144   30.4147 H   0  0  0  0  0  0  0  0  0  0  0  0
    0.6430   -4.1489   33.9320 H   0  0  0  0  0  0  0  0  0  0  0  0
   -0.2540   -5.7633   35.5404 H   0  0  0  0  0  0  0  0  0  0  0  0
   -1.2797   -7.8874   34.8062 H   0  0  0  0  0  0  0  0  0  0  0  0
   -0.3307   -6.6167   29.6773 H   0  0  0  0  0  0  0  0  0  0  0  0
   -2.1328    0.1227   26.8081 H   0  0  0  0  0  0  0  0  0  0  0  0
   -2.9901    2.2731   25.9458 H   0  0  0  0  0  0  0  0  0  0  0  0
   -2.0100    4.4073   26.7340 H   0  0  0  0  0  0  0  0  0  0  0  0
   -0.1933    4.3870   28.4208 H   0  0  0  0  0  0  0  0  0  0  0  0
    0.6545    2.2662   29.3146 H   0  0  0  0  0  0  0  0  0  0  0  0
    1.2667    0.1976   30.0910 H   0  0  0  0  0  0  0  0  0  0  0  0
  1  2  2  0
  2  3  1  0
  3  4  1  0
  4  5  1  0
  5  6  2  0
  6  7  1  0
  7  8  2  0
  8  9  1  0
  9 10  2  0
 10 11  1  0
 11 12  2  0
 12 13  1  0
  8 14  1  0
  4 15  1  0
 15 16  1  0
 16 17  1  0
  2 18  1  0
 18 19  1  0
 18 20  1  0
 18 21  1  0
 21 22  1  0
 22 23  1  0
 23 24  1  0
 24 25  1  0
 25 26  1  0
 26 27  2  0
 27 28  1  0
 28 29  2  0
 29 30  1  0
 30 31  2  0
 31 32  1  0
 32 33  2  0
 33 34  1  0
 23 35  1  0
 35 36  2  0
 36 37  1  0
 37 38  2  0
 38 39  1  0
 39 40  2  0
 40 41  1  0
 41 42  2  0
 42 43  1  0
 43 44  2  0
 38 45  1  0
 17  4  1  0
 34 26  1  0
 45 35  1  0
 14  5  1  0
 34 30  1  0
 44 39  1  0
 13  9  1  0
  3 46  1  0
 10 47  1  0
 11 48  1  0
 12 49  1  0
 14 50  1  0
 15 51  1  0
 15 52  1  0
 16 53  1  0
 16 54  1  0
 17 55  1  0
 17 56  1  0
 19 57  1  0
 21 58  1  0
 21 59  1  0
 22 60  1  0
 23 61  1  0
 24 62  1  0
 25 63  1  0
 25 64  1  0
 27 65  1  0
 28 66  1  0
 29 67  1  0
 33 68  1  0
 40 69  1  0
 41 70  1  0
 42 71  1  0
 43 72  1  0
 44 73  1  0
 45 74  1  0
M  END
>  <Energy>  (561) 
65.802059612068874

>  <compound_id>  (561) 
4209

>  <target_id>  (561) 
1

>  <reference_id>  (561) 
147

>  <inspiration_ids>  (561) 
[147, 152]

>  <energy_score>  (561) 
-84.01509604838753

>  <distance_score>  (561) 
1.3095830310947318

>  <path>  (561) 
/opt/xchem-fragalysis-2/maxwin/BulkDock/SCRATCH/505735/C4209-P147/C4209-P147.minimised.mol

>  <scratch_subdir>  (561) 
/opt/xchem-fragalysis-2/maxwin/BulkDock/SCRATCH/505735/C4209-P147

>  <fragmenstein_runtime>  (561) 
58.837210178375244

>  <fragmenstein_outcome>  (561) 
too moved

>  <fragmenstein_mode>  (561) 
expansion

>  <fragmenstein_error>  (561) 


$$$$
C4209-P152
     RDKit          3D

 74 80  0  0  0  0  0  0  0  0999 V2000
   -0.2422   -2.5920   33.5333 O   0  0  0  0  0  0  0  0  0  0  0  0
    0.5638   -1.9863   34.1306 C   0  0  0  0  0  0  0  0  0  0  0  0
    0.8565   -1.9304   35.6688 N   0  0  0  0  0  0  0  0  0  0  0  0
    0.2709   -2.6900   36.7756 C   0  0  0  0  0  0  0  0  0  0  0  0
    1.0978   -4.0022   37.0126 C   0  0  0  0  0  0  0  0  0  0  0  0
    2.0897   -4.3663   36.2316 N   0  0  0  0  0  0  0  0  0  0  0  0
    2.5338   -5.5963   36.6456 N   0  0  0  0  0  0  0  0  0  0  0  0
    1.8635   -5.9305   37.7275 C   0  0  0  0  0  0  0  0  0  0  0  0
    2.0707   -7.1140   38.5034 C   0  0  0  0  0  0  0  0  0  0  0  0
    1.2023   -7.7186   39.3913 C   0  0  0  0  0  0  0  0  0  0  0  0
    1.7652   -8.8807   39.9986 C   0  0  0  0  0  0  0  0  0  0  0  0
    3.0469   -9.1246   39.5617 C   0  0  0  0  0  0  0  0  0  0  0  0
    3.5530   -7.9765   38.4030 S   0  0  0  0  0  0  0  0  0  0  0  0
    0.9324   -4.9548   37.9841 N   0  0  0  0  0  0  0  0  0  0  0  0
   -1.2544   -2.9022   36.6664 C   0  0  0  0  0  0  0  0  0  0  0  0
   -1.3841   -2.4987   38.1460 C   0  0  0  0  0  0  0  0  0  0  0  0
    0.0042   -1.8392   38.0404 C   0  0  0  0  0  0  0  0  0  0  0  0
    1.6362   -1.1068   33.4056 C   0  0  0  0  0  0  0  0  0  0  0  0
    3.3147   -1.8080   33.7294 S   0  0  0  0  0  0  0  0  0  0  0  0
    1.5559    0.5340   34.1737 Cl  0  0  0  0  0  0  0  0  0  0  0  0
    1.3403   -0.9563   31.8724 C   0  0  0  0  0  0  0  0  0  0  0  0
    2.0107   -1.8632   30.9056 N   0  0  0  0  0  0  0  0  0  0  0  0
    1.1638   -2.7239   30.0828 C   0  0  0  0  0  0  0  0  0  0  0  0
    0.5467   -3.7473   30.9001 N   0  0  0  0  0  0  0  0  0  0  0  0
    1.4239   -4.7631   31.4428 C   0  0  0  0  0  0  0  0  0  0  0  0
    0.6547   -5.6835   32.3496 C   0  0  0  0  0  0  0  0  0  0  0  0
    0.7898   -5.6679   33.6878 C   0  0  0  0  0  0  0  0  0  0  0  0
   -0.0104   -6.5518   34.5182 C   0  0  0  0  0  0  0  0  0  0  0  0
   -0.8656   -7.4376   33.9820 C   0  0  0  0  0  0  0  0  0  0  0  0
   -0.9633   -7.5241   32.5730 C   0  0  0  0  0  0  0  0  0  0  0  0
   -1.6077   -8.3407   31.7713 N   0  0  0  0  0  0  0  0  0  0  0  0
   -1.3057   -7.9753   30.4831 N   0  0  0  0  0  0  0  0  0  0  0  0
   -0.5230   -6.9283   30.5316 C   0  0  0  0  0  0  0  0  0  0  0  0
   -0.2212   -6.6269   31.8206 N   0  0  0  0  0  0  0  0  0  0  0  0
    0.1402   -1.9266   29.3281 C   0  0  0  0  0  0  0  0  0  0  0  0
   -1.1590   -2.1220   29.2577 N   0  0  0  0  0  0  0  0  0  0  0  0
   -1.7070   -1.0559   28.5888 N   0  0  0  0  0  0  0  0  0  0  0  0
   -0.7499   -0.2021   28.2873 C   0  0  0  0  0  0  0  0  0  0  0  0
   -0.9106    1.1244   27.7007 C   0  0  0  0  0  0  0  0  0  0  0  0
   -1.8846    1.3347   26.7176 C   0  0  0  0  0  0  0  0  0  0  0  0
   -2.1256    2.6056   26.1939 C   0  0  0  0  0  0  0  0  0  0  0  0
   -1.3813    3.6892   26.6480 C   0  0  0  0  0  0  0  0  0  0  0  0
   -0.3977    3.4977   27.6178 C   0  0  0  0  0  0  0  0  0  0  0  0
   -0.1605    2.2217   28.1410 C   0  0  0  0  0  0  0  0  0  0  0  0
    0.4408   -0.7635   28.6633 N   0  0  0  0  0  0  0  0  0  0  0  0
    1.6849   -1.3628   35.8377 H   0  0  0  0  0  0  0  0  0  0  0  0
    0.2006   -7.3689   39.6039 H   0  0  0  0  0  0  0  0  0  0  0  0
    1.2500   -9.5210   40.7066 H   0  0  0  0  0  0  0  0  0  0  0  0
    3.6994   -9.9365   39.8529 H   0  0  0  0  0  0  0  0  0  0  0  0
    0.2710   -4.9435   38.7457 H   0  0  0  0  0  0  0  0  0  0  0  0
   -1.7701   -2.2122   35.9880 H   0  0  0  0  0  0  0  0  0  0  0  0
   -1.5715   -3.9215   36.4315 H   0  0  0  0  0  0  0  0  0  0  0  0
   -2.2103   -1.8209   38.3769 H   0  0  0  0  0  0  0  0  0  0  0  0
   -1.4246   -3.3479   38.8364 H   0  0  0  0  0  0  0  0  0  0  0  0
    0.6649   -2.0094   38.8959 H   0  0  0  0  0  0  0  0  0  0  0  0
   -0.0449   -0.7588   37.8560 H   0  0  0  0  0  0  0  0  0  0  0  0
    2.9259   -2.8120   34.5389 H   0  0  0  0  0  0  0  0  0  0  0  0
    1.6901    0.0387   31.5647 H   0  0  0  0  0  0  0  0  0  0  0  0
    0.2549   -0.9209   31.7192 H   0  0  0  0  0  0  0  0  0  0  0  0
    2.7372   -2.4036   31.3673 H   0  0  0  0  0  0  0  0  0  0  0  0
    1.7972   -3.2056   29.3270 H   0  0  0  0  0  0  0  0  0  0  0  0
   -0.0218   -3.3068   31.6280 H   0  0  0  0  0  0  0  0  0  0  0  0
    1.8902   -5.3386   30.6344 H   0  0  0  0  0  0  0  0  0  0  0  0
    2.2466   -4.3184   32.0119 H   0  0  0  0  0  0  0  0  0  0  0  0
    1.4687   -4.9771   34.1619 H   0  0  0  0  0  0  0  0  0  0  0  0
    0.0896   -6.4738   35.5920 H   0  0  0  0  0  0  0  0  0  0  0  0
   -1.4647   -8.1024   34.5914 H   0  0  0  0  0  0  0  0  0  0  0  0
   -0.1593   -6.3490   29.7020 H   0  0  0  0  0  0  0  0  0  0  0  0
   -2.4653    0.4927   26.3550 H   0  0  0  0  0  0  0  0  0  0  0  0
   -2.9065    2.7481   25.4502 H   0  0  0  0  0  0  0  0  0  0  0  0
   -1.5836    4.6845   26.2599 H   0  0  0  0  0  0  0  0  0  0  0  0
    0.1628    4.3508   27.9923 H   0  0  0  0  0  0  0  0  0  0  0  0
    0.5796    2.1140   28.9284 H   0  0  0  0  0  0  0  0  0  0  0  0
    1.3548   -0.3488   28.5795 H   0  0  0  0  0  0  0  0  0  0  0  0
  1  2  2  0
  2  3  1  0
  3  4  1  0
  4  5  1  0
  5  6  2  0
  6  7  1  0
  7  8  2  0
  8  9  1  0
  9 10  2  0
 10 11  1  0
 11 12  2  0
 12 13  1  0
  8 14  1  0
  4 15  1  0
 15 16  1  0
 16 17  1  0
  2 18  1  0
 18 19  1  0
 18 20  1  0
 18 21  1  0
 21 22  1  0
 22 23  1  0
 23 24  1  0
 24 25  1  0
 25 26  1  0
 26 27  2  0
 27 28  1  0
 28 29  2  0
 29 30  1  0
 30 31  2  0
 31 32  1  0
 32 33  2  0
 33 34  1  0
 23 35  1  0
 35 36  2  0
 36 37  1  0
 37 38  2  0
 38 39  1  0
 39 40  2  0
 40 41  1  0
 41 42  2  0
 42 43  1  0
 43 44  2  0
 38 45  1  0
 17  4  1  0
 34 26  1  0
 45 35  1  0
 14  5  1  0
 34 30  1  0
 44 39  1  0
 13  9  1  0
  3 46  1  0
 10 47  1  0
 11 48  1  0
 12 49  1  0
 14 50  1  0
 15 51  1  0
 15 52  1  0
 16 53  1  0
 16 54  1  0
 17 55  1  0
 17 56  1  0
 19 57  1  0
 21 58  1  0
 21 59  1  0
 22 60  1  0
 23 61  1  0
 24 62  1  0
 25 63  1  0
 25 64  1  0
 27 65  1  0
 28 66  1  0
 29 67  1  0
 33 68  1  0
 40 69  1  0
 41 70  1  0
 42 71  1  0
 43 72  1  0
 44 73  1  0
 45 74  1  0
M  END
>  <Energy>  (562) 
83.8312973923274

>  <compound_id>  (562) 
4209

>  <target_id>  (562) 
1

>  <reference_id>  (562) 
152

>  <inspiration_ids>  (562) 
[147, 152]

>  <energy_score>  (562) 
-52.5796599948888

>  <distance_score>  (562) 
0.8843744377005688

>  <path>  (562) 
/opt/xchem-fragalysis-2/maxwin/BulkDock/SCRATCH/505735/C4209-P152/C4209-P152.minimised.mol

>  <scratch_subdir>  (562) 
/opt/xchem-fragalysis-2/maxwin/BulkDock/SCRATCH/505735/C4209-P152

>  <fragmenstein_runtime>  (562) 
52.987743854522705

>  <fragmenstein_outcome>  (562) 
acceptable

>  <fragmenstein_mode>  (562) 
expansion

>  <fragmenstein_error>  (562) 


$$$$
C4215-P147
     RDKit          3D

 44 48  0  0  0  0  0  0  0  0999 V2000
    0.4661   -5.6743   36.0268 C   0  0  0  0  0  0  0  0  0  0  0  0
    0.2617   -6.0809   34.5975 C   0  0  0  0  0  0  0  0  0  0  0  0
    0.9993   -5.3073   33.6012 C   0  0  0  0  0  0  0  0  0  0  0  0
    0.7820   -5.5116   32.2838 C   0  0  0  0  0  0  0  0  0  0  0  0
    1.4305   -4.6552   31.2214 C   0  0  0  0  0  0  0  0  0  0  0  0
    0.4926   -3.6351   30.7169 N   0  0  0  0  0  0  0  0  0  0  0  0
    1.0866   -2.8103   29.6397 C   0  0  0  0  0  0  0  0  0  0  0  0
    0.1555   -1.7434   29.1565 C   0  0  0  0  0  0  0  0  0  0  0  0
    0.4405   -0.7249   28.3682 N   0  0  0  0  0  0  0  0  0  0  0  0
   -0.7625   -0.0507   28.2521 C   0  0  0  0  0  0  0  0  0  0  0  0
   -0.8899    1.2388   27.5883 C   0  0  0  0  0  0  0  0  0  0  0  0
   -2.0499    1.5676   26.8786 C   0  0  0  0  0  0  0  0  0  0  0  0
   -2.2199    2.8343   26.3207 C   0  0  0  0  0  0  0  0  0  0  0  0
   -1.2217    3.7909   26.4700 C   0  0  0  0  0  0  0  0  0  0  0  0
   -0.0517    3.4742   27.1605 C   0  0  0  0  0  0  0  0  0  0  0  0
    0.1179    2.2008   27.7125 C   0  0  0  0  0  0  0  0  0  0  0  0
   -1.7644   -0.6008   28.9502 N   0  0  0  0  0  0  0  0  0  0  0  0
   -1.1374   -1.6026   29.5995 N   0  0  0  0  0  0  0  0  0  0  0  0
   -1.4683   -2.0976   31.2326 S   0  0  0  0  0  0  0  0  0  0  0  0
   -1.5911   -0.8726   31.9981 O   0  0  0  0  0  0  0  0  0  0  0  0
   -2.5083   -3.1025   31.1750 O   0  0  0  0  0  0  0  0  0  0  0  0
   -0.0182   -2.8480   31.7841 N   0  0  0  0  0  0  0  0  0  0  0  0
   -0.1151   -6.5248   31.9249 N   0  0  0  0  0  0  0  0  0  0  0  0
   -0.5326   -6.9768   30.7042 C   0  0  0  0  0  0  0  0  0  0  0  0
   -1.3581   -7.9871   30.8417 N   0  0  0  0  0  0  0  0  0  0  0  0
   -1.5246   -8.2008   32.1888 N   0  0  0  0  0  0  0  0  0  0  0  0
   -0.7873   -7.3236   32.8361 C   0  0  0  0  0  0  0  0  0  0  0  0
   -0.5834   -7.0642   34.2183 C   0  0  0  0  0  0  0  0  0  0  0  0
    1.5149   -5.7990   36.3164 H   0  0  0  0  0  0  0  0  0  0  0  0
    0.1844   -4.6263   36.1751 H   0  0  0  0  0  0  0  0  0  0  0  0
   -0.1406   -6.2799   36.7090 H   0  0  0  0  0  0  0  0  0  0  0  0
    1.6630   -4.5226   33.9540 H   0  0  0  0  0  0  0  0  0  0  0  0
    1.7789   -5.2911   30.3983 H   0  0  0  0  0  0  0  0  0  0  0  0
    2.3266   -4.1681   31.6302 H   0  0  0  0  0  0  0  0  0  0  0  0
    2.0106   -2.3341   29.9909 H   0  0  0  0  0  0  0  0  0  0  0  0
    1.3412   -3.4538   28.7897 H   0  0  0  0  0  0  0  0  0  0  0  0
   -2.8356    0.8346   26.7596 H   0  0  0  0  0  0  0  0  0  0  0  0
   -3.1380    3.0766   25.7897 H   0  0  0  0  0  0  0  0  0  0  0  0
   -1.3632    4.7860   26.0550 H   0  0  0  0  0  0  0  0  0  0  0  0
    0.7232    4.2264   27.2812 H   0  0  0  0  0  0  0  0  0  0  0  0
    1.0268    1.9739   28.2632 H   0  0  0  0  0  0  0  0  0  0  0  0
    0.6213   -2.1378   32.1612 H   0  0  0  0  0  0  0  0  0  0  0  0
   -0.2228   -6.5362   29.7725 H   0  0  0  0  0  0  0  0  0  0  0  0
   -1.1412   -7.6587   34.9338 H   0  0  0  0  0  0  0  0  0  0  0  0
  1  2  1  0
  2  3  1  0
  3  4  2  0
  4  5  1  0
  5  6  1  0
  6  7  1  0
  7  8  1  0
  8  9  2  0
  9 10  1  0
 10 11  1  0
 11 12  2  0
 12 13  1  0
 13 14  2  0
 14 15  1  0
 15 16  2  0
 10 17  2  0
 17 18  1  0
 18 19  1  0
 19 20  2  0
 19 21  2  0
 19 22  1  0
  4 23  1  0
 23 24  1  0
 24 25  2  0
 25 26  1  0
 26 27  2  0
 27 28  1  0
 28  2  2  0
 22  6  1  0
 27 23  1  0
 18  8  1  0
 16 11  1  0
  1 29  1  0
  1 30  1  0
  1 31  1  0
  3 32  1  0
  5 33  1  0
  5 34  1  0
  7 35  1  0
  7 36  1  0
 12 37  1  0
 13 38  1  0
 14 39  1  0
 15 40  1  0
 16 41  1  0
 22 42  1  0
 24 43  1  0
 28 44  1  0
M  END
>  <Energy>  (563) 
201.46945242504339

>  <compound_id>  (563) 
4215

>  <target_id>  (563) 
1

>  <reference_id>  (563) 
147

>  <inspiration_ids>  (563) 
[147, 165]

>  <energy_score>  (563) 
-37.728771512403455

>  <distance_score>  (563) 
0.89389525741749

>  <path>  (563) 
/opt/xchem-fragalysis-2/maxwin/BulkDock/SCRATCH/505735/C4215-P147/C4215-P147.minimised.mol

>  <scratch_subdir>  (563) 
/opt/xchem-fragalysis-2/maxwin/BulkDock/SCRATCH/505735/C4215-P147

>  <fragmenstein_runtime>  (563) 
2.2477264404296875

>  <fragmenstein_outcome>  (563) 
acceptable

>  <fragmenstein_mode>  (563) 
expansion

>  <fragmenstein_error>  (563) 


$$$$
C4215-P165
     RDKit          3D

 44 48  0  0  0  0  0  0  0  0999 V2000
    0.4305   -5.6881   36.1213 C   0  0  0  0  0  0  0  0  0  0  0  0
    0.2495   -6.0949   34.6896 C   0  0  0  0  0  0  0  0  0  0  0  0
    0.9945   -5.3120   33.7049 C   0  0  0  0  0  0  0  0  0  0  0  0
    0.8005   -5.5196   32.3848 C   0  0  0  0  0  0  0  0  0  0  0  0
    1.4692   -4.6736   31.3245 C   0  0  0  0  0  0  0  0  0  0  0  0
    0.5481   -3.6472   30.8014 N   0  0  0  0  0  0  0  0  0  0  0  0
    1.1430   -2.8668   29.6906 C   0  0  0  0  0  0  0  0  0  0  0  0
    0.2332   -1.7870   29.1938 C   0  0  0  0  0  0  0  0  0  0  0  0
    0.5328   -0.7933   28.3778 N   0  0  0  0  0  0  0  0  0  0  0  0
   -0.6528   -0.0893   28.2686 C   0  0  0  0  0  0  0  0  0  0  0  0
   -0.7633    1.1939   27.5919 C   0  0  0  0  0  0  0  0  0  0  0  0
   -1.8708    1.4848   26.7887 C   0  0  0  0  0  0  0  0  0  0  0  0
   -2.0451    2.7507   26.2316 C   0  0  0  0  0  0  0  0  0  0  0  0
   -1.1004    3.7424   26.4726 C   0  0  0  0  0  0  0  0  0  0  0  0
    0.0204    3.4627   27.2545 C   0  0  0  0  0  0  0  0  0  0  0  0
    0.1933    2.1905   27.8080 C   0  0  0  0  0  0  0  0  0  0  0  0
   -1.6537   -0.5907   29.0019 N   0  0  0  0  0  0  0  0  0  0  0  0
   -1.0485   -1.6028   29.6542 N   0  0  0  0  0  0  0  0  0  0  0  0
   -1.3630   -2.0446   31.3070 S   0  0  0  0  0  0  0  0  0  0  0  0
   -1.4377   -0.7947   32.0389 O   0  0  0  0  0  0  0  0  0  0  0  0
   -2.4338   -3.0177   31.2969 O   0  0  0  0  0  0  0  0  0  0  0  0
    0.0745   -2.8197   31.8549 N   0  0  0  0  0  0  0  0  0  0  0  0
   -0.0858   -6.5386   32.0177 N   0  0  0  0  0  0  0  0  0  0  0  0
   -0.4854   -6.9843   30.7912 C   0  0  0  0  0  0  0  0  0  0  0  0
   -1.3092   -7.9965   30.9080 N   0  0  0  0  0  0  0  0  0  0  0  0
   -1.4917   -8.2197   32.2513 N   0  0  0  0  0  0  0  0  0  0  0  0
   -0.7653   -7.3453   32.9153 C   0  0  0  0  0  0  0  0  0  0  0  0
   -0.5788   -7.0895   34.3003 C   0  0  0  0  0  0  0  0  0  0  0  0
    1.4766   -5.8016   36.4249 H   0  0  0  0  0  0  0  0  0  0  0  0
    0.1355   -4.6433   36.2669 H   0  0  0  0  0  0  0  0  0  0  0  0
   -0.1787   -6.3006   36.7951 H   0  0  0  0  0  0  0  0  0  0  0  0
    1.6488   -4.5242   34.0677 H   0  0  0  0  0  0  0  0  0  0  0  0
    1.8239   -5.3189   30.5112 H   0  0  0  0  0  0  0  0  0  0  0  0
    2.3651   -4.1924   31.7407 H   0  0  0  0  0  0  0  0  0  0  0  0
    2.0860   -2.4074   30.0123 H   0  0  0  0  0  0  0  0  0  0  0  0
    1.3638   -3.5397   28.8539 H   0  0  0  0  0  0  0  0  0  0  0  0
   -2.6101    0.7211   26.5947 H   0  0  0  0  0  0  0  0  0  0  0  0
   -2.9262    2.9656   25.6306 H   0  0  0  0  0  0  0  0  0  0  0  0
   -1.2485    4.7380   26.0605 H   0  0  0  0  0  0  0  0  0  0  0  0
    0.7499    4.2442   27.4494 H   0  0  0  0  0  0  0  0  0  0  0  0
    1.0581    1.9936   28.4357 H   0  0  0  0  0  0  0  0  0  0  0  0
    0.7383   -2.1176   32.2037 H   0  0  0  0  0  0  0  0  0  0  0  0
   -0.1674   -6.5265   29.8738 H   0  0  0  0  0  0  0  0  0  0  0  0
   -1.1373   -7.6953   35.0083 H   0  0  0  0  0  0  0  0  0  0  0  0
  1  2  1  0
  2  3  1  0
  3  4  2  0
  4  5  1  0
  5  6  1  0
  6  7  1  0
  7  8  1  0
  8  9  2  0
  9 10  1  0
 10 11  1  0
 11 12  2  0
 12 13  1  0
 13 14  2  0
 14 15  1  0
 15 16  2  0
 10 17  2  0
 17 18  1  0
 18 19  1  0
 19 20  2  0
 19 21  2  0
 19 22  1  0
  4 23  1  0
 23 24  1  0
 24 25  2  0
 25 26  1  0
 26 27  2  0
 27 28  1  0
 28  2  2  0
 22  6  1  0
 27 23  1  0
 18  8  1  0
 16 11  1  0
  1 29  1  0
  1 30  1  0
  1 31  1  0
  3 32  1  0
  5 33  1  0
  5 34  1  0
  7 35  1  0
  7 36  1  0
 12 37  1  0
 13 38  1  0
 14 39  1  0
 15 40  1  0
 16 41  1  0
 22 42  1  0
 24 43  1  0
 28 44  1  0
M  END
>  <Energy>  (564) 
202.44927683721713

>  <compound_id>  (564) 
4215

>  <target_id>  (564) 
1

>  <reference_id>  (564) 
165

>  <inspiration_ids>  (564) 
[147, 165]

>  <energy_score>  (564) 
-36.74894710022909

>  <distance_score>  (564) 
0.9286016875115063

>  <path>  (564) 
/opt/xchem-fragalysis-2/maxwin/BulkDock/SCRATCH/505735/C4215-P165/C4215-P165.minimised.mol

>  <scratch_subdir>  (564) 
/opt/xchem-fragalysis-2/maxwin/BulkDock/SCRATCH/505735/C4215-P165

>  <fragmenstein_runtime>  (564) 
1.859781265258789

>  <fragmenstein_outcome>  (564) 
acceptable

>  <fragmenstein_mode>  (564) 
expansion

>  <fragmenstein_error>  (564) 


$$$$
C4217-P147
     RDKit          3D

 64 68  0  0  0  0  0  0  0  0999 V2000
   -1.1134    4.6265   35.1613 C   0  0  0  0  0  0  0  0  0  0  0  0
   -0.0336    4.0078   34.2938 C   0  0  0  0  0  0  0  0  0  0  0  0
   -0.2463    2.5926   34.1771 O   0  0  0  0  0  0  0  0  0  0  0  0
    0.3350    1.8304   35.1341 C   0  0  0  0  0  0  0  0  0  0  0  0
    0.9729    2.2350   36.0944 O   0  0  0  0  0  0  0  0  0  0  0  0
    0.1310    0.3841   34.8877 C   0  0  0  0  0  0  0  0  0  0  0  0
   -0.5864   -0.1360   33.8771 C   0  0  0  0  0  0  0  0  0  0  0  0
   -0.7653   -1.6142   33.5481 C   0  0  0  0  0  0  0  0  0  0  0  0
    0.2932   -1.9744   32.4890 C   0  0  0  0  0  0  0  0  0  0  0  0
    0.0513   -3.3112   31.7241 C   0  0  0  0  0  0  0  0  0  0  0  0
    0.6172   -3.1835   30.2649 C   0  0  0  0  0  0  0  0  0  0  0  0
   -0.1090   -2.1567   29.4355 C   0  0  0  0  0  0  0  0  0  0  0  0
    0.2131   -0.8907   29.2318 N   0  0  0  0  0  0  0  0  0  0  0  0
   -0.8230   -0.3995   28.4520 C   0  0  0  0  0  0  0  0  0  0  0  0
   -0.9149    0.9754   27.9602 C   0  0  0  0  0  0  0  0  0  0  0  0
   -1.8803    1.3201   26.9984 C   0  0  0  0  0  0  0  0  0  0  0  0
   -2.0362    2.6356   26.5580 C   0  0  0  0  0  0  0  0  0  0  0  0
   -1.2058    3.6288   27.0635 C   0  0  0  0  0  0  0  0  0  0  0  0
   -0.2210    3.3018   27.9972 C   0  0  0  0  0  0  0  0  0  0  0  0
   -0.0734    1.9815   28.4424 C   0  0  0  0  0  0  0  0  0  0  0  0
   -1.7824   -1.3059   28.2344 N   0  0  0  0  0  0  0  0  0  0  0  0
   -1.2585   -2.4206   28.7432 N   0  0  0  0  0  0  0  0  0  0  0  0
    0.6543   -4.4865   32.5800 C   0  0  0  0  0  0  0  0  0  0  0  0
    0.8284   -5.8417   31.8486 C   0  0  0  0  0  0  0  0  0  0  0  0
   -0.4073   -6.7336   31.9375 C   0  0  0  0  0  0  0  0  0  0  0  0
   -0.8101   -6.9909   33.3939 C   0  0  0  0  0  0  0  0  0  0  0  0
   -0.1456   -5.9996   34.3440 C   0  0  0  0  0  0  0  0  0  0  0  0
   -0.8416   -5.8198   35.6072 N   0  0  0  0  0  0  0  0  0  0  0  0
   -0.3327   -4.5202   36.0867 N   0  0  0  0  0  0  0  0  0  0  0  0
    0.0267   -3.7545   34.8693 C   0  0  0  0  0  0  0  0  0  0  0  0
   -0.8866   -2.5287   34.7885 C   0  0  0  0  0  0  0  0  0  0  0  0
   -0.1836   -4.6766   33.7687 N   0  0  0  0  0  0  0  0  0  0  0  0
   -2.1070    4.3968   34.7627 H   0  0  0  0  0  0  0  0  0  0  0  0
   -0.9960    5.7127   35.2109 H   0  0  0  0  0  0  0  0  0  0  0  0
   -1.0776    4.2236   36.1783 H   0  0  0  0  0  0  0  0  0  0  0  0
    0.9676    4.2323   34.6791 H   0  0  0  0  0  0  0  0  0  0  0  0
   -0.0892    4.4243   33.2827 H   0  0  0  0  0  0  0  0  0  0  0  0
    0.6514   -0.2443   35.6019 H   0  0  0  0  0  0  0  0  0  0  0  0
   -1.0610    0.5381   33.1634 H   0  0  0  0  0  0  0  0  0  0  0  0
   -1.7432   -1.6686   33.0461 H   0  0  0  0  0  0  0  0  0  0  0  0
    0.3199   -1.1482   31.7701 H   0  0  0  0  0  0  0  0  0  0  0  0
    1.2945   -1.9739   32.9410 H   0  0  0  0  0  0  0  0  0  0  0  0
   -1.0318   -3.4745   31.6249 H   0  0  0  0  0  0  0  0  0  0  0  0
    0.5217   -4.1344   29.7328 H   0  0  0  0  0  0  0  0  0  0  0  0
    1.6842   -2.9350   30.3014 H   0  0  0  0  0  0  0  0  0  0  0  0
   -2.5203    0.5490   26.5807 H   0  0  0  0  0  0  0  0  0  0  0  0
   -2.8107    2.8806   25.8352 H   0  0  0  0  0  0  0  0  0  0  0  0
   -1.3330    4.6581   26.7382 H   0  0  0  0  0  0  0  0  0  0  0  0
    0.4203    4.0824   28.3985 H   0  0  0  0  0  0  0  0  0  0  0  0
    0.6864    1.7471   29.1837 H   0  0  0  0  0  0  0  0  0  0  0  0
   -1.7523   -3.2935   28.5766 H   0  0  0  0  0  0  0  0  0  0  0  0
    1.6728   -4.1973   32.8762 H   0  0  0  0  0  0  0  0  0  0  0  0
    1.6597   -6.3767   32.3262 H   0  0  0  0  0  0  0  0  0  0  0  0
    1.1331   -5.7245   30.8076 H   0  0  0  0  0  0  0  0  0  0  0  0
   -1.2346   -6.2441   31.4148 H   0  0  0  0  0  0  0  0  0  0  0  0
   -0.2342   -7.6852   31.4236 H   0  0  0  0  0  0  0  0  0  0  0  0
   -1.8970   -6.9498   33.4679 H   0  0  0  0  0  0  0  0  0  0  0  0
   -0.5308   -8.0063   33.6858 H   0  0  0  0  0  0  0  0  0  0  0  0
    0.8853   -6.3215   34.5531 H   0  0  0  0  0  0  0  0  0  0  0  0
   -1.8270   -5.6662   35.3658 H   0  0  0  0  0  0  0  0  0  0  0  0
    0.5133   -4.6655   36.6424 H   0  0  0  0  0  0  0  0  0  0  0  0
    1.0759   -3.4470   34.9614 H   0  0  0  0  0  0  0  0  0  0  0  0
   -0.7674   -1.9546   35.7157 H   0  0  0  0  0  0  0  0  0  0  0  0
   -1.9329   -2.8588   34.8333 H   0  0  0  0  0  0  0  0  0  0  0  0
  1  2  1  0
  2  3  1  0
  3  4  1  0
  4  5  2  0
  4  6  1  0
  6  7  2  3
  7  8  1  0
  8  9  1  0
  9 10  1  0
 10 11  1  0
 11 12  1  0
 12 13  2  0
 13 14  1  0
 14 15  1  0
 15 16  2  0
 16 17  1  0
 17 18  2  0
 18 19  1  0
 19 20  2  0
 14 21  2  0
 21 22  1  0
 10 23  1  0
 23 24  1  0
 24 25  1  0
 25 26  1  0
 26 27  1  0
 27 28  1  0
 28 29  1  0
 29 30  1  0
 30 31  1  0
 30 32  1  0
 31  8  1  0
 22 12  1  0
 32 23  1  0
 20 15  1  0
 32 27  1  0
  1 33  1  0
  1 34  1  0
  1 35  1  0
  2 36  1  0
  2 37  1  0
  6 38  1  0
  7 39  1  0
  8 40  1  0
  9 41  1  0
  9 42  1  0
 10 43  1  0
 11 44  1  0
 11 45  1  0
 16 46  1  0
 17 47  1  0
 18 48  1  0
 19 49  1  0
 20 50  1  0
 22 51  1  0
 23 52  1  0
 24 53  1  0
 24 54  1  0
 25 55  1  0
 25 56  1  0
 26 57  1  0
 26 58  1  0
 27 59  1  0
 28 60  1  0
 29 61  1  0
 30 62  1  0
 31 63  1  0
 31 64  1  0
M  END
>  <Energy>  (565) 
57.322024563340491

>  <compound_id>  (565) 
4217

>  <target_id>  (565) 
1

>  <reference_id>  (565) 
147

>  <inspiration_ids>  (565) 
[147, 168]

>  <energy_score>  (565) 
-82.45342145630138

>  <distance_score>  (565) 
1.3123139728712463

>  <path>  (565) 
/opt/xchem-fragalysis-2/maxwin/BulkDock/SCRATCH/505735/C4217-P147/C4217-P147.minimised.mol

>  <scratch_subdir>  (565) 
/opt/xchem-fragalysis-2/maxwin/BulkDock/SCRATCH/505735/C4217-P147

>  <fragmenstein_runtime>  (565) 
5.630543231964111

>  <fragmenstein_outcome>  (565) 
too moved

>  <fragmenstein_mode>  (565) 
expansion

>  <fragmenstein_error>  (565) 


$$$$
C4217-P168
     RDKit          3D

 64 68  0  0  0  0  0  0  0  0999 V2000
   -0.9292    4.6551   35.1146 C   0  0  0  0  0  0  0  0  0  0  0  0
    0.1824    3.9999   34.3171 C   0  0  0  0  0  0  0  0  0  0  0  0
   -0.0537    2.5869   34.2118 O   0  0  0  0  0  0  0  0  0  0  0  0
    0.4620    1.8298   35.2099 C   0  0  0  0  0  0  0  0  0  0  0  0
    1.0530    2.2383   36.1979 O   0  0  0  0  0  0  0  0  0  0  0  0
    0.2491    0.3831   34.9715 C   0  0  0  0  0  0  0  0  0  0  0  0
   -0.4348   -0.1399   33.9392 C   0  0  0  0  0  0  0  0  0  0  0  0
   -0.6194   -1.6184   33.6129 C   0  0  0  0  0  0  0  0  0  0  0  0
    0.4526   -1.9874   32.5706 C   0  0  0  0  0  0  0  0  0  0  0  0
    0.2009   -3.3081   31.7811 C   0  0  0  0  0  0  0  0  0  0  0  0
    0.8271   -3.1700   30.3488 C   0  0  0  0  0  0  0  0  0  0  0  0
    0.1485   -2.1362   29.4877 C   0  0  0  0  0  0  0  0  0  0  0  0
    0.4616   -0.8606   29.3264 N   0  0  0  0  0  0  0  0  0  0  0  0
   -0.4943   -0.3824   28.4435 C   0  0  0  0  0  0  0  0  0  0  0  0
   -0.6066    1.0033   27.9837 C   0  0  0  0  0  0  0  0  0  0  0  0
   -1.5323    1.3435   26.9805 C   0  0  0  0  0  0  0  0  0  0  0  0
   -1.7280    2.6647   26.5754 C   0  0  0  0  0  0  0  0  0  0  0  0
   -0.9714    3.6728   27.1572 C   0  0  0  0  0  0  0  0  0  0  0  0
   -0.0232    3.3541   28.1309 C   0  0  0  0  0  0  0  0  0  0  0  0
    0.1610    2.0265   28.5418 C   0  0  0  0  0  0  0  0  0  0  0  0
   -1.3749   -1.3194   28.0870 N   0  0  0  0  0  0  0  0  0  0  0  0
   -0.9331   -2.4130   28.7006 N   0  0  0  0  0  0  0  0  0  0  0  0
    0.7461   -4.5146   32.6369 C   0  0  0  0  0  0  0  0  0  0  0  0
    0.8815   -5.8708   31.8958 C   0  0  0  0  0  0  0  0  0  0  0  0
   -0.3840   -6.7234   31.9672 C   0  0  0  0  0  0  0  0  0  0  0  0
   -0.8135   -6.9811   33.4159 C   0  0  0  0  0  0  0  0  0  0  0  0
   -0.1267   -6.0161   34.3780 C   0  0  0  0  0  0  0  0  0  0  0  0
   -0.8230   -5.8225   35.6389 N   0  0  0  0  0  0  0  0  0  0  0  0
   -0.2655   -4.5488   36.1338 N   0  0  0  0  0  0  0  0  0  0  0  0
    0.1165   -3.7827   34.9241 C   0  0  0  0  0  0  0  0  0  0  0  0
   -0.7624   -2.5315   34.8517 C   0  0  0  0  0  0  0  0  0  0  0  0
   -0.1152   -4.6868   33.8117 N   0  0  0  0  0  0  0  0  0  0  0  0
   -1.9045    4.4391   34.6665 H   0  0  0  0  0  0  0  0  0  0  0  0
   -0.7916    5.7394   35.1531 H   0  0  0  0  0  0  0  0  0  0  0  0
   -0.9569    4.2690   36.1384 H   0  0  0  0  0  0  0  0  0  0  0  0
    1.1661    4.2106   34.7521 H   0  0  0  0  0  0  0  0  0  0  0  0
    0.1896    4.3995   33.2977 H   0  0  0  0  0  0  0  0  0  0  0  0
    0.7347   -0.2413   35.7131 H   0  0  0  0  0  0  0  0  0  0  0  0
   -0.8714    0.5335   33.2017 H   0  0  0  0  0  0  0  0  0  0  0  0
   -1.5902   -1.6679   33.0967 H   0  0  0  0  0  0  0  0  0  0  0  0
    0.5097   -1.1539   31.8617 H   0  0  0  0  0  0  0  0  0  0  0  0
    1.4445   -2.0131   33.0420 H   0  0  0  0  0  0  0  0  0  0  0  0
   -0.8816   -3.4420   31.6411 H   0  0  0  0  0  0  0  0  0  0  0  0
    0.7548   -4.1163   29.8058 H   0  0  0  0  0  0  0  0  0  0  0  0
    1.8931   -2.9277   30.4334 H   0  0  0  0  0  0  0  0  0  0  0  0
   -2.1123    0.5607   26.5009 H   0  0  0  0  0  0  0  0  0  0  0  0
   -2.4720    2.9024   25.8192 H   0  0  0  0  0  0  0  0  0  0  0  0
   -1.1241    4.7071   26.8588 H   0  0  0  0  0  0  0  0  0  0  0  0
    0.5603    4.1483   28.5909 H   0  0  0  0  0  0  0  0  0  0  0  0
    0.8907    1.8021   29.3159 H   0  0  0  0  0  0  0  0  0  0  0  0
   -1.4370   -3.2802   28.5346 H   0  0  0  0  0  0  0  0  0  0  0  0
    1.7698   -4.2642   32.9502 H   0  0  0  0  0  0  0  0  0  0  0  0
    1.6926   -6.4365   32.3734 H   0  0  0  0  0  0  0  0  0  0  0  0
    1.1958   -5.7573   30.8576 H   0  0  0  0  0  0  0  0  0  0  0  0
   -1.1882   -6.1999   31.4432 H   0  0  0  0  0  0  0  0  0  0  0  0
   -0.2386   -7.6750   31.4450 H   0  0  0  0  0  0  0  0  0  0  0  0
   -1.9014   -6.9109   33.4775 H   0  0  0  0  0  0  0  0  0  0  0  0
   -0.5660   -8.0072   33.7021 H   0  0  0  0  0  0  0  0  0  0  0  0
    0.8917   -6.3728   34.5919 H   0  0  0  0  0  0  0  0  0  0  0  0
   -1.8009   -5.6254   35.3908 H   0  0  0  0  0  0  0  0  0  0  0  0
    0.5769   -4.7331   36.6834 H   0  0  0  0  0  0  0  0  0  0  0  0
    1.1732   -3.5040   35.0223 H   0  0  0  0  0  0  0  0  0  0  0  0
   -0.6213   -1.9658   35.7806 H   0  0  0  0  0  0  0  0  0  0  0  0
   -1.8182   -2.8301   34.8998 H   0  0  0  0  0  0  0  0  0  0  0  0
  1  2  1  0
  2  3  1  0
  3  4  1  0
  4  5  2  0
  4  6  1  0
  6  7  2  3
  7  8  1  0
  8  9  1  0
  9 10  1  0
 10 11  1  0
 11 12  1  0
 12 13  2  0
 13 14  1  0
 14 15  1  0
 15 16  2  0
 16 17  1  0
 17 18  2  0
 18 19  1  0
 19 20  2  0
 14 21  2  0
 21 22  1  0
 10 23  1  0
 23 24  1  0
 24 25  1  0
 25 26  1  0
 26 27  1  0
 27 28  1  0
 28 29  1  0
 29 30  1  0
 30 31  1  0
 30 32  1  0
 31  8  1  0
 22 12  1  0
 32 23  1  0
 20 15  1  0
 32 27  1  0
  1 33  1  0
  1 34  1  0
  1 35  1  0
  2 36  1  0
  2 37  1  0
  6 38  1  0
  7 39  1  0
  8 40  1  0
  9 41  1  0
  9 42  1  0
 10 43  1  0
 11 44  1  0
 11 45  1  0
 16 46  1  0
 17 47  1  0
 18 48  1  0
 19 49  1  0
 20 50  1  0
 22 51  1  0
 23 52  1  0
 24 53  1  0
 24 54  1  0
 25 55  1  0
 25 56  1  0
 26 57  1  0
 26 58  1  0
 27 59  1  0
 28 60  1  0
 29 61  1  0
 30 62  1  0
 31 63  1  0
 31 64  1  0
M  END
>  <Energy>  (566) 
57.205127102599931

>  <compound_id>  (566) 
4217

>  <target_id>  (566) 
1

>  <reference_id>  (566) 
168

>  <inspiration_ids>  (566) 
[147, 168]

>  <energy_score>  (566) 
-82.57031891704204

>  <distance_score>  (566) 
1.3349420587101395

>  <path>  (566) 
/opt/xchem-fragalysis-2/maxwin/BulkDock/SCRATCH/505735/C4217-P168/C4217-P168.minimised.mol

>  <scratch_subdir>  (566) 
/opt/xchem-fragalysis-2/maxwin/BulkDock/SCRATCH/505735/C4217-P168

>  <fragmenstein_runtime>  (566) 
6.640638828277588

>  <fragmenstein_outcome>  (566) 
too moved

>  <fragmenstein_mode>  (566) 
expansion

>  <fragmenstein_error>  (566) 


$$$$
C4215-P147
     RDKit          2D

  0  0  0  0  0  0  0  0  0  0999 V2000
M  END
>  <compound_id>  (567) 
4215

>  <target_id>  (567) 
1

>  <reference_id>  (567) 
147

>  <inspiration_ids>  (567) 
[147, 177]

>  <energy_score>  (567) 
nan

>  <distance_score>  (567) 
nan

>  <path>  (567) 
/opt/xchem-fragalysis-2/maxwin/BulkDock/SCRATCH/505735/C4215-P147/C4215-P147.minimised.mol

>  <scratch_subdir>  (567) 
/opt/xchem-fragalysis-2/maxwin/BulkDock/SCRATCH/505735/C4215-P147

>  <fragmenstein_runtime>  (567) 
0.48244690895080566

>  <fragmenstein_outcome>  (567) 
crashed

>  <fragmenstein_mode>  (567) 
expansion

>  <fragmenstein_error>  (567) 
PoisonError: None has poison atoms [17, 18, 17, 18, 18, 17, 18, 17]

$$$$
C4220-P147
     RDKit          3D

 51 56  0  0  0  0  0  0  0  0999 V2000
   -0.9735   -7.6993   29.6352 N   0  0  0  0  0  0  0  0  0  0  0  0
   -0.2591   -7.8766   30.8293 N   0  0  0  0  0  0  0  0  0  0  0  0
   -0.6562   -6.9331   31.7154 C   0  0  0  0  0  0  0  0  0  0  0  0
   -1.5233   -7.0820   32.6796 N   0  0  0  0  0  0  0  0  0  0  0  0
   -1.5172   -5.9354   33.4271 N   0  0  0  0  0  0  0  0  0  0  0  0
   -0.6908   -5.0651   32.8842 C   0  0  0  0  0  0  0  0  0  0  0  0
   -0.0288   -5.7198   31.8688 N   0  0  0  0  0  0  0  0  0  0  0  0
    1.3731   -5.4672   31.6085 C   0  0  0  0  0  0  0  0  0  0  0  0
    1.8349   -4.9797   29.9179 S   0  0  0  0  0  0  0  0  0  0  0  0
    0.7390   -3.7389   29.4025 C   0  0  0  0  0  0  0  0  0  0  0  0
   -0.5563   -3.8818   29.2476 N   0  0  0  0  0  0  0  0  0  0  0  0
   -1.0408   -2.6722   28.7973 N   0  0  0  0  0  0  0  0  0  0  0  0
   -0.0151   -1.8525   28.6923 C   0  0  0  0  0  0  0  0  0  0  0  0
   -0.1278   -0.4679   28.3523 C   0  0  0  0  0  0  0  0  0  0  0  0
   -1.2066    0.2607   27.8800 C   0  0  0  0  0  0  0  0  0  0  0  0
   -0.8221    1.6146   27.7645 C   0  0  0  0  0  0  0  0  0  0  0  0
    0.4983    1.6781   28.1340 C   0  0  0  0  0  0  0  0  0  0  0  0
    0.9136    0.4131   28.4663 N   0  0  0  0  0  0  0  0  0  0  0  0
    1.1603   -2.4747   29.0643 O   0  0  0  0  0  0  0  0  0  0  0  0
    2.1334   -4.6858   32.7291 C   0  0  0  0  0  0  0  0  0  0  0  0
    1.2816   -4.2548   33.9452 C   0  0  0  0  0  0  0  0  0  0  0  0
   -0.1208   -3.7812   33.4833 C   0  0  0  0  0  0  0  0  0  0  0  0
    0.0906   -2.6287   32.4441 C   0  0  0  0  0  0  0  0  0  0  0  0
   -1.2069   -2.0857   31.8580 C   0  0  0  0  0  0  0  0  0  0  0  0
   -2.0141   -1.6380   32.9889 C   0  0  0  0  0  0  0  0  0  0  0  0
   -2.9460   -0.6501   32.9288 N   0  0  0  0  0  0  0  0  0  0  0  0
   -3.4949   -0.5046   34.1785 C   0  0  0  0  0  0  0  0  0  0  0  0
   -2.8782   -1.4020   35.0324 C   0  0  0  0  0  0  0  0  0  0  0  0
   -1.9274   -2.1297   34.2749 C   0  0  0  0  0  0  0  0  0  0  0  0
   -0.9477   -3.2095   34.6908 C   0  0  0  0  0  0  0  0  0  0  0  0
   -0.7427   -8.4427   28.9725 H   0  0  0  0  0  0  0  0  0  0  0  0
   -0.7677   -6.8063   29.1701 H   0  0  0  0  0  0  0  0  0  0  0  0
   -0.4985   -8.8011   31.2177 H   0  0  0  0  0  0  0  0  0  0  0  0
    1.8078   -6.4615   31.6981 H   0  0  0  0  0  0  0  0  0  0  0  0
   -2.1719   -0.1643   27.6390 H   0  0  0  0  0  0  0  0  0  0  0  0
   -1.4386    2.4433   27.4369 H   0  0  0  0  0  0  0  0  0  0  0  0
    1.1828    2.5149   28.1815 H   0  0  0  0  0  0  0  0  0  0  0  0
    1.8493    0.1699   28.7627 H   0  0  0  0  0  0  0  0  0  0  0  0
    2.6226   -3.7959   32.3120 H   0  0  0  0  0  0  0  0  0  0  0  0
    2.9627   -5.3021   33.1011 H   0  0  0  0  0  0  0  0  0  0  0  0
    1.1940   -5.0974   34.6450 H   0  0  0  0  0  0  0  0  0  0  0  0
    1.8099   -3.4573   34.4822 H   0  0  0  0  0  0  0  0  0  0  0  0
    0.6208   -1.8067   32.9515 H   0  0  0  0  0  0  0  0  0  0  0  0
    0.7492   -2.8970   31.6342 H   0  0  0  0  0  0  0  0  0  0  0  0
   -1.7532   -2.8539   31.3047 H   0  0  0  0  0  0  0  0  0  0  0  0
   -0.9944   -1.2442   31.1937 H   0  0  0  0  0  0  0  0  0  0  0  0
   -3.2099   -0.1451   32.0934 H   0  0  0  0  0  0  0  0  0  0  0  0
   -4.2835    0.2132   34.3599 H   0  0  0  0  0  0  0  0  0  0  0  0
   -3.0988   -1.5249   36.0848 H   0  0  0  0  0  0  0  0  0  0  0  0
   -1.4467   -4.0012   35.2569 H   0  0  0  0  0  0  0  0  0  0  0  0
   -0.2541   -2.7283   35.3946 H   0  0  0  0  0  0  0  0  0  0  0  0
  1  2  1  0
  2  3  1  0
  3  4  2  0
  4  5  1  0
  5  6  2  0
  6  7  1  0
  7  8  1  0
  8  9  1  0
  9 10  1  0
 10 11  2  0
 11 12  1  0
 12 13  2  0
 13 14  1  0
 14 15  2  0
 15 16  1  0
 16 17  2  0
 17 18  1  0
 13 19  1  0
  8 20  1  0
 20 21  1  0
 21 22  1  0
 22 23  1  0
 23 24  1  0
 24 25  1  0
 25 26  1  0
 26 27  1  0
 27 28  2  0
 28 29  1  0
 29 30  1  0
  7  3  1  0
 19 10  1  0
 30 22  1  0
 22  6  1  0
 29 25  2  0
 18 14  1  0
  1 31  1  0
  1 32  1  0
  2 33  1  0
  8 34  1  0
 15 35  1  0
 16 36  1  0
 17 37  1  0
 18 38  1  0
 20 39  1  0
 20 40  1  0
 21 41  1  0
 21 42  1  0
 23 43  1  0
 23 44  1  0
 24 45  1  0
 24 46  1  0
 26 47  1  0
 27 48  1  0
 28 49  1  0
 30 50  1  0
 30 51  1  0
M  END
>  <Energy>  (568) 
79.800131887918255

>  <compound_id>  (568) 
4220

>  <target_id>  (568) 
1

>  <reference_id>  (568) 
147

>  <inspiration_ids>  (568) 
[147, 186]

>  <energy_score>  (568) 
-24.515949418172738

>  <distance_score>  (568) 
2.06462369831026

>  <path>  (568) 
/opt/xchem-fragalysis-2/maxwin/BulkDock/SCRATCH/505735/C4220-P147/C4220-P147.minimised.mol

>  <scratch_subdir>  (568) 
/opt/xchem-fragalysis-2/maxwin/BulkDock/SCRATCH/505735/C4220-P147

>  <fragmenstein_runtime>  (568) 
3.460195541381836

>  <fragmenstein_outcome>  (568) 
too moved

>  <fragmenstein_mode>  (568) 
expansion

>  <fragmenstein_error>  (568) 


$$$$
C4220-P186
     RDKit          3D

 51 56  0  0  0  0  0  0  0  0999 V2000
   -0.8276   -7.9103   29.7308 N   0  0  0  0  0  0  0  0  0  0  0  0
   -0.2429   -8.0635   30.9942 N   0  0  0  0  0  0  0  0  0  0  0  0
   -0.6391   -7.0598   31.8076 C   0  0  0  0  0  0  0  0  0  0  0  0
   -1.5455   -7.1376   32.7422 N   0  0  0  0  0  0  0  0  0  0  0  0
   -1.5161   -5.9708   33.4499 N   0  0  0  0  0  0  0  0  0  0  0  0
   -0.6338   -5.1563   32.9132 C   0  0  0  0  0  0  0  0  0  0  0  0
    0.0270   -5.8630   31.9320 N   0  0  0  0  0  0  0  0  0  0  0  0
    1.4365   -5.6520   31.6677 C   0  0  0  0  0  0  0  0  0  0  0  0
    1.9110   -5.2844   29.9498 S   0  0  0  0  0  0  0  0  0  0  0  0
    0.8887   -4.0002   29.4091 C   0  0  0  0  0  0  0  0  0  0  0  0
   -0.4158   -4.0833   29.2731 N   0  0  0  0  0  0  0  0  0  0  0  0
   -0.8459   -2.8546   28.8456 N   0  0  0  0  0  0  0  0  0  0  0  0
    0.2169   -2.0757   28.7748 C   0  0  0  0  0  0  0  0  0  0  0  0
    0.0899   -0.6637   28.6418 C   0  0  0  0  0  0  0  0  0  0  0  0
    0.9972    0.3750   28.5707 C   0  0  0  0  0  0  0  0  0  0  0  0
    0.2701    1.5866   28.6605 C   0  0  0  0  0  0  0  0  0  0  0  0
   -1.0602    1.2511   28.7567 C   0  0  0  0  0  0  0  0  0  0  0  0
   -1.1628   -0.1047   28.6525 N   0  0  0  0  0  0  0  0  0  0  0  0
    1.3679   -2.7542   29.0867 O   0  0  0  0  0  0  0  0  0  0  0  0
    2.1985   -4.7990   32.7280 C   0  0  0  0  0  0  0  0  0  0  0  0
    1.3602   -4.3489   33.9445 C   0  0  0  0  0  0  0  0  0  0  0  0
   -0.0460   -3.8743   33.4912 C   0  0  0  0  0  0  0  0  0  0  0  0
    0.1516   -2.7420   32.4304 C   0  0  0  0  0  0  0  0  0  0  0  0
   -1.1511   -2.1707   31.8836 C   0  0  0  0  0  0  0  0  0  0  0  0
   -1.9125   -1.6907   33.0337 C   0  0  0  0  0  0  0  0  0  0  0  0
   -2.7947   -0.6555   33.0071 N   0  0  0  0  0  0  0  0  0  0  0  0
   -3.3054   -0.4952   34.2710 C   0  0  0  0  0  0  0  0  0  0  0  0
   -2.7070   -1.4239   35.1031 C   0  0  0  0  0  0  0  0  0  0  0  0
   -1.8068   -2.1850   34.3171 C   0  0  0  0  0  0  0  0  0  0  0  0
   -0.8525   -3.2937   34.7096 C   0  0  0  0  0  0  0  0  0  0  0  0
   -0.4532   -8.6167   29.0905 H   0  0  0  0  0  0  0  0  0  0  0  0
   -0.6632   -6.9834   29.3233 H   0  0  0  0  0  0  0  0  0  0  0  0
   -0.5639   -8.9561   31.3999 H   0  0  0  0  0  0  0  0  0  0  0  0
    1.8558   -6.6443   31.8321 H   0  0  0  0  0  0  0  0  0  0  0  0
    2.0738    0.2749   28.5127 H   0  0  0  0  0  0  0  0  0  0  0  0
    0.6744    2.5914   28.6471 H   0  0  0  0  0  0  0  0  0  0  0  0
   -1.9443    1.8662   28.8179 H   0  0  0  0  0  0  0  0  0  0  0  0
   -2.0189   -0.6457   28.6509 H   0  0  0  0  0  0  0  0  0  0  0  0
    2.6439   -3.9107   32.2617 H   0  0  0  0  0  0  0  0  0  0  0  0
    3.0592   -5.3704   33.1007 H   0  0  0  0  0  0  0  0  0  0  0  0
    1.2764   -5.1812   34.6569 H   0  0  0  0  0  0  0  0  0  0  0  0
    1.8968   -3.5453   34.4642 H   0  0  0  0  0  0  0  0  0  0  0  0
    0.7238   -1.9275   32.9021 H   0  0  0  0  0  0  0  0  0  0  0  0
    0.7638   -3.0488   31.5981 H   0  0  0  0  0  0  0  0  0  0  0  0
   -1.7286   -2.9265   31.3438 H   0  0  0  0  0  0  0  0  0  0  0  0
   -0.9372   -1.3374   31.2131 H   0  0  0  0  0  0  0  0  0  0  0  0
   -3.0479   -0.1188   32.1896 H   0  0  0  0  0  0  0  0  0  0  0  0
   -4.0518    0.2594   34.4785 H   0  0  0  0  0  0  0  0  0  0  0  0
   -2.9004   -1.5403   36.1617 H   0  0  0  0  0  0  0  0  0  0  0  0
   -1.3720   -4.0779   35.2683 H   0  0  0  0  0  0  0  0  0  0  0  0
   -0.1434   -2.8404   35.4164 H   0  0  0  0  0  0  0  0  0  0  0  0
  1  2  1  0
  2  3  1  0
  3  4  2  0
  4  5  1  0
  5  6  2  0
  6  7  1  0
  7  8  1  0
  8  9  1  0
  9 10  1  0
 10 11  2  0
 11 12  1  0
 12 13  2  0
 13 14  1  0
 14 15  2  0
 15 16  1  0
 16 17  2  0
 17 18  1  0
 13 19  1  0
  8 20  1  0
 20 21  1  0
 21 22  1  0
 22 23  1  0
 23 24  1  0
 24 25  1  0
 25 26  1  0
 26 27  1  0
 27 28  2  0
 28 29  1  0
 29 30  1  0
  7  3  1  0
 19 10  1  0
 30 22  1  0
 22  6  1  0
 29 25  2  0
 18 14  1  0
  1 31  1  0
  1 32  1  0
  2 33  1  0
  8 34  1  0
 15 35  1  0
 16 36  1  0
 17 37  1  0
 18 38  1  0
 20 39  1  0
 20 40  1  0
 21 41  1  0
 21 42  1  0
 23 43  1  0
 23 44  1  0
 24 45  1  0
 24 46  1  0
 26 47  1  0
 27 48  1  0
 28 49  1  0
 30 50  1  0
 30 51  1  0
M  END
>  <Energy>  (569) 
76.680754063009346

>  <compound_id>  (569) 
4220

>  <target_id>  (569) 
1

>  <reference_id>  (569) 
186

>  <inspiration_ids>  (569) 
[147, 186]

>  <energy_score>  (569) 
-27.6353272430801

>  <distance_score>  (569) 
1.8296159247706456

>  <path>  (569) 
/opt/xchem-fragalysis-2/maxwin/BulkDock/SCRATCH/505735/C4220-P186/C4220-P186.minimised.mol

>  <scratch_subdir>  (569) 
/opt/xchem-fragalysis-2/maxwin/BulkDock/SCRATCH/505735/C4220-P186

>  <fragmenstein_runtime>  (569) 
2.801039457321167

>  <fragmenstein_outcome>  (569) 
too moved

>  <fragmenstein_mode>  (569) 
expansion

>  <fragmenstein_error>  (569) 


$$$$
C4222-P147
     RDKit          3D

 50 56  0  0  0  0  0  0  0  0999 V2000
   -1.6190   -1.2121   33.5388 C   0  0  0  0  0  0  0  0  0  0  0  0
   -0.3659   -0.8283   32.7854 C   0  0  0  0  0  0  0  0  0  0  0  0
   -0.1503    0.5386   32.5791 C   0  0  0  0  0  0  0  0  0  0  0  0
    0.9132    0.9805   31.8024 C   0  0  0  0  0  0  0  0  0  0  0  0
    1.8035    0.0564   31.2732 C   0  0  0  0  0  0  0  0  0  0  0  0
    2.8350    0.4904   30.5360 F   0  0  0  0  0  0  0  0  0  0  0  0
    1.6469   -1.3111   31.4832 C   0  0  0  0  0  0  0  0  0  0  0  0
    0.5248   -1.7459   32.1814 C   0  0  0  0  0  0  0  0  0  0  0  0
   -0.1908   -3.2238   31.7261 S   0  0  0  0  0  0  0  0  0  0  0  0
   -1.5691   -2.6792   30.7745 C   0  0  0  0  0  0  0  0  0  0  0  0
   -0.9241   -2.3875   29.3912 C   0  0  0  0  0  0  0  0  0  0  0  0
    0.0435   -3.5584   29.2139 C   0  0  0  0  0  0  0  0  0  0  0  0
    0.3812   -4.1663   30.3641 C   0  0  0  0  0  0  0  0  0  0  0  0
    0.1804   -5.5672   30.6682 C   0  0  0  0  0  0  0  0  0  0  0  0
    0.0169   -6.7774   30.1661 N   0  0  0  0  0  0  0  0  0  0  0  0
   -0.3430   -7.6528   31.2330 N   0  0  0  0  0  0  0  0  0  0  0  0
   -0.3955   -6.9390   32.3403 C   0  0  0  0  0  0  0  0  0  0  0  0
   -0.6471   -7.1301   33.7309 C   0  0  0  0  0  0  0  0  0  0  0  0
   -0.6658   -6.0520   34.5572 C   0  0  0  0  0  0  0  0  0  0  0  0
   -0.5245   -4.6692   34.0593 C   0  0  0  0  0  0  0  0  0  0  0  0
   -0.3316   -4.5335   32.7482 C   0  0  0  0  0  0  0  0  0  0  0  0
   -0.1765   -5.6530   31.9818 N   0  0  0  0  0  0  0  0  0  0  0  0
   -2.0390   -2.3845   28.4952 N   0  0  0  0  0  0  0  0  0  0  0  0
   -1.9861   -1.1753   27.7562 N   0  0  0  0  0  0  0  0  0  0  0  0
   -0.6804   -0.6085   28.0263 C   0  0  0  0  0  0  0  0  0  0  0  0
   -0.7910    0.8879   27.9033 C   0  0  0  0  0  0  0  0  0  0  0  0
   -0.0731    1.9641   28.3898 C   0  0  0  0  0  0  0  0  0  0  0  0
   -0.6487    3.1559   27.8703 C   0  0  0  0  0  0  0  0  0  0  0  0
   -1.6832    2.7897   27.0441 C   0  0  0  0  0  0  0  0  0  0  0  0
   -1.7348    1.4270   27.0362 N   0  0  0  0  0  0  0  0  0  0  0  0
   -0.3157   -1.0858   29.3179 O   0  0  0  0  0  0  0  0  0  0  0  0
   -1.8741   -2.2691   33.5136 H   0  0  0  0  0  0  0  0  0  0  0  0
   -1.4946   -0.9375   34.5923 H   0  0  0  0  0  0  0  0  0  0  0  0
   -2.4816   -0.6634   33.1432 H   0  0  0  0  0  0  0  0  0  0  0  0
   -0.8274    1.2718   33.0076 H   0  0  0  0  0  0  0  0  0  0  0  0
    1.0682    2.0391   31.6196 H   0  0  0  0  0  0  0  0  0  0  0  0
    2.3056   -1.9960   30.9613 H   0  0  0  0  0  0  0  0  0  0  0  0
   -2.0628   -1.7926   31.1637 H   0  0  0  0  0  0  0  0  0  0  0  0
   -2.2879   -3.4959   30.7766 H   0  0  0  0  0  0  0  0  0  0  0  0
    0.0552   -4.0786   28.2683 H   0  0  0  0  0  0  0  0  0  0  0  0
   -0.8085   -8.1316   34.1070 H   0  0  0  0  0  0  0  0  0  0  0  0
   -0.8448   -6.1739   35.6222 H   0  0  0  0  0  0  0  0  0  0  0  0
   -0.6358   -3.8402   34.7469 H   0  0  0  0  0  0  0  0  0  0  0  0
   -2.0678   -3.2035   27.8781 H   0  0  0  0  0  0  0  0  0  0  0  0
   -2.6418   -0.5389   28.1932 H   0  0  0  0  0  0  0  0  0  0  0  0
    0.0872   -0.9568   27.3432 H   0  0  0  0  0  0  0  0  0  0  0  0
    0.7813    1.8989   29.0482 H   0  0  0  0  0  0  0  0  0  0  0  0
   -0.3376    4.1713   28.0807 H   0  0  0  0  0  0  0  0  0  0  0  0
   -2.3792    3.3811   26.4626 H   0  0  0  0  0  0  0  0  0  0  0  0
   -2.3776    0.8627   26.4918 H   0  0  0  0  0  0  0  0  0  0  0  0
  1  2  1  0
  2  3  2  0
  3  4  1  0
  4  5  2  0
  5  6  1  0
  5  7  1  0
  7  8  2  0
  8  9  1  0
  9 10  1  0
 10 11  1  0
 11 12  1  0
 12 13  2  0
 13 14  1  0
 14 15  2  0
 15 16  1  0
 16 17  2  0
 17 18  1  0
 18 19  2  0
 19 20  1  0
 20 21  2  0
 21 22  1  0
 11 23  1  0
 23 24  1  0
 24 25  1  0
 25 26  1  0
 26 27  2  0
 27 28  1  0
 28 29  2  0
 29 30  1  0
 25 31  1  0
  8  2  1  0
 13  9  1  0
 22 14  1  0
 30 26  1  0
 21  9  1  0
 31 11  1  0
 22 17  1  0
  1 32  1  0
  1 33  1  0
  1 34  1  0
  3 35  1  0
  4 36  1  0
  7 37  1  0
 10 38  1  0
 10 39  1  0
 12 40  1  0
 18 41  1  0
 19 42  1  0
 20 43  1  0
 23 44  1  0
 24 45  1  0
 25 46  1  0
 27 47  1  0
 28 48  1  0
 29 49  1  0
 30 50  1  0
M  END
>  <Energy>  (570) 
157.69539717235654

>  <compound_id>  (570) 
4222

>  <target_id>  (570) 
1

>  <reference_id>  (570) 
147

>  <inspiration_ids>  (570) 
[147, 188]

>  <energy_score>  (570) 
-28.80438255535796

>  <distance_score>  (570) 
2.0350733058802053

>  <path>  (570) 
/opt/xchem-fragalysis-2/maxwin/BulkDock/SCRATCH/505735/C4222-P147/C4222-P147.minimised.mol

>  <scratch_subdir>  (570) 
/opt/xchem-fragalysis-2/maxwin/BulkDock/SCRATCH/505735/C4222-P147

>  <fragmenstein_runtime>  (570) 
7.102710723876953

>  <fragmenstein_outcome>  (570) 
too moved

>  <fragmenstein_mode>  (570) 
expansion

>  <fragmenstein_error>  (570) 


$$$$
C4222-P188
     RDKit          3D

 50 56  0  0  0  0  0  0  0  0999 V2000
   -1.6683   -1.3448   33.5752 C   0  0  0  0  0  0  0  0  0  0  0  0
   -0.4372   -0.8702   32.8356 C   0  0  0  0  0  0  0  0  0  0  0  0
   -0.2909    0.5079   32.6469 C   0  0  0  0  0  0  0  0  0  0  0  0
    0.7679    1.0158   31.9033 C   0  0  0  0  0  0  0  0  0  0  0  0
    1.7302    0.1486   31.4052 C   0  0  0  0  0  0  0  0  0  0  0  0
    2.7611    0.6459   30.7081 F   0  0  0  0  0  0  0  0  0  0  0  0
    1.6462   -1.2272   31.6040 C   0  0  0  0  0  0  0  0  0  0  0  0
    0.5254   -1.7309   32.2567 C   0  0  0  0  0  0  0  0  0  0  0  0
   -0.1061   -3.2234   31.7324 S   0  0  0  0  0  0  0  0  0  0  0  0
   -1.4382   -2.6898   30.7141 C   0  0  0  0  0  0  0  0  0  0  0  0
   -0.7335   -2.3911   29.3659 C   0  0  0  0  0  0  0  0  0  0  0  0
    0.2626   -3.5380   29.2323 C   0  0  0  0  0  0  0  0  0  0  0  0
    0.5475   -4.1474   30.3963 C   0  0  0  0  0  0  0  0  0  0  0  0
    0.3253   -5.5512   30.6754 C   0  0  0  0  0  0  0  0  0  0  0  0
    0.2000   -6.7561   30.1512 N   0  0  0  0  0  0  0  0  0  0  0  0
   -0.2352   -7.6399   31.1835 N   0  0  0  0  0  0  0  0  0  0  0  0
   -0.3579   -6.9387   32.2936 C   0  0  0  0  0  0  0  0  0  0  0  0
   -0.6934   -7.1416   33.6643 C   0  0  0  0  0  0  0  0  0  0  0  0
   -0.7637   -6.0730   34.4992 C   0  0  0  0  0  0  0  0  0  0  0  0
   -0.5953   -4.6865   34.0250 C   0  0  0  0  0  0  0  0  0  0  0  0
   -0.3166   -4.5396   32.7313 C   0  0  0  0  0  0  0  0  0  0  0  0
   -0.1154   -5.6503   31.9631 N   0  0  0  0  0  0  0  0  0  0  0  0
   -1.8208   -2.4008   28.4447 N   0  0  0  0  0  0  0  0  0  0  0  0
   -1.7864   -1.1819   27.7319 N   0  0  0  0  0  0  0  0  0  0  0  0
   -0.4915   -0.6015   28.0144 C   0  0  0  0  0  0  0  0  0  0  0  0
   -0.6200    0.8956   27.9085 C   0  0  0  0  0  0  0  0  0  0  0  0
    0.1184    1.9682   28.3734 C   0  0  0  0  0  0  0  0  0  0  0  0
   -0.4727    3.1635   27.8806 C   0  0  0  0  0  0  0  0  0  0  0  0
   -1.5421    2.8042   27.0976 C   0  0  0  0  0  0  0  0  0  0  0  0
   -1.6083    1.4425   27.0969 N   0  0  0  0  0  0  0  0  0  0  0  0
   -0.1368   -1.0836   29.3079 O   0  0  0  0  0  0  0  0  0  0  0  0
   -2.0691   -2.3046   33.2533 H   0  0  0  0  0  0  0  0  0  0  0  0
   -1.4337   -1.4143   34.6426 H   0  0  0  0  0  0  0  0  0  0  0  0
   -2.4857   -0.6237   33.4565 H   0  0  0  0  0  0  0  0  0  0  0  0
   -1.0164    1.1984   33.0651 H   0  0  0  0  0  0  0  0  0  0  0  0
    0.8665    2.0820   31.7267 H   0  0  0  0  0  0  0  0  0  0  0  0
    2.3591   -1.8694   31.0994 H   0  0  0  0  0  0  0  0  0  0  0  0
   -1.9619   -1.8091   31.0810 H   0  0  0  0  0  0  0  0  0  0  0  0
   -2.1418   -3.5195   30.6816 H   0  0  0  0  0  0  0  0  0  0  0  0
    0.3565   -4.0338   28.2792 H   0  0  0  0  0  0  0  0  0  0  0  0
   -0.8732   -8.1448   34.0250 H   0  0  0  0  0  0  0  0  0  0  0  0
   -1.0016   -6.2115   35.5509 H   0  0  0  0  0  0  0  0  0  0  0  0
   -0.7505   -3.8656   34.7131 H   0  0  0  0  0  0  0  0  0  0  0  0
   -1.8891   -3.2270   27.8438 H   0  0  0  0  0  0  0  0  0  0  0  0
   -2.4448   -0.5645   28.1872 H   0  0  0  0  0  0  0  0  0  0  0  0
    0.2870   -0.9364   27.3309 H   0  0  0  0  0  0  0  0  0  0  0  0
    0.9976    1.8969   28.9991 H   0  0  0  0  0  0  0  0  0  0  0  0
   -0.1528    4.1777   28.0816 H   0  0  0  0  0  0  0  0  0  0  0  0
   -2.2653    3.4013   26.5563 H   0  0  0  0  0  0  0  0  0  0  0  0
   -2.2883    0.8869   26.5904 H   0  0  0  0  0  0  0  0  0  0  0  0
  1  2  1  0
  2  3  2  0
  3  4  1  0
  4  5  2  0
  5  6  1  0
  5  7  1  0
  7  8  2  0
  8  9  1  0
  9 10  1  0
 10 11  1  0
 11 12  1  0
 12 13  2  0
 13 14  1  0
 14 15  2  0
 15 16  1  0
 16 17  2  0
 17 18  1  0
 18 19  2  0
 19 20  1  0
 20 21  2  0
 21 22  1  0
 11 23  1  0
 23 24  1  0
 24 25  1  0
 25 26  1  0
 26 27  2  0
 27 28  1  0
 28 29  2  0
 29 30  1  0
 25 31  1  0
  8  2  1  0
 13  9  1  0
 22 14  1  0
 30 26  1  0
 21  9  1  0
 31 11  1  0
 22 17  1  0
  1 32  1  0
  1 33  1  0
  1 34  1  0
  3 35  1  0
  4 36  1  0
  7 37  1  0
 10 38  1  0
 10 39  1  0
 12 40  1  0
 18 41  1  0
 19 42  1  0
 20 43  1  0
 23 44  1  0
 24 45  1  0
 25 46  1  0
 27 47  1  0
 28 48  1  0
 29 49  1  0
 30 50  1  0
M  END
>  <Energy>  (571) 
160.65758867833748

>  <compound_id>  (571) 
4222

>  <target_id>  (571) 
1

>  <reference_id>  (571) 
188

>  <inspiration_ids>  (571) 
[147, 188]

>  <energy_score>  (571) 
-25.842191049376936

>  <distance_score>  (571) 
2.048702030442408

>  <path>  (571) 
/opt/xchem-fragalysis-2/maxwin/BulkDock/SCRATCH/505735/C4222-P188/C4222-P188.minimised.mol

>  <scratch_subdir>  (571) 
/opt/xchem-fragalysis-2/maxwin/BulkDock/SCRATCH/505735/C4222-P188

>  <fragmenstein_runtime>  (571) 
7.299108982086182

>  <fragmenstein_outcome>  (571) 
too moved

>  <fragmenstein_mode>  (571) 
expansion

>  <fragmenstein_error>  (571) 


$$$$
C4223-P147
     RDKit          3D

 59 63  0  0  0  0  0  0  0  0999 V2000
   -5.2902   -2.1736   33.3469 C   0  0  0  0  0  0  0  0  0  0  0  0
   -5.1854   -0.7505   33.4374 O   0  0  0  0  0  0  0  0  0  0  0  0
   -4.0665   -0.1509   33.9015 C   0  0  0  0  0  0  0  0  0  0  0  0
   -3.9622    1.0772   33.8368 O   0  0  0  0  0  0  0  0  0  0  0  0
   -2.9636   -1.0306   34.4974 C   0  0  0  0  0  0  0  0  0  0  0  0
   -1.9519   -0.1755   35.0674 N   0  0  0  0  0  0  0  0  0  0  0  0
   -0.6951   -0.5221   35.9419 C   0  0  0  0  0  0  0  0  0  0  0  0
   -0.2403   -1.5901   36.2730 N   0  0  0  0  0  0  0  0  0  0  0  0
   -0.7517   -2.8764   35.8514 C   0  0  0  0  0  0  0  0  0  0  0  0
    0.2840   -3.9491   36.2328 C   0  0  0  0  0  0  0  0  0  0  0  0
   -0.0883   -5.2735   35.7422 N   0  0  0  0  0  0  0  0  0  0  0  0
   -0.1356   -5.7056   34.4299 C   0  0  0  0  0  0  0  0  0  0  0  0
    0.6107   -4.9705   33.3967 C   0  0  0  0  0  0  0  0  0  0  0  0
    0.5465   -5.3342   32.0984 C   0  0  0  0  0  0  0  0  0  0  0  0
    1.5406   -4.5542   30.9066 S   0  0  0  0  0  0  0  0  0  0  0  0
    0.4277   -3.4009   30.2206 C   0  0  0  0  0  0  0  0  0  0  0  0
   -0.8752   -3.5548   30.1054 N   0  0  0  0  0  0  0  0  0  0  0  0
   -1.3455   -2.4503   29.4339 N   0  0  0  0  0  0  0  0  0  0  0  0
   -0.3079   -1.6676   29.1978 C   0  0  0  0  0  0  0  0  0  0  0  0
   -0.4294   -0.3845   28.5834 C   0  0  0  0  0  0  0  0  0  0  0  0
    0.2925    0.7879   28.7296 C   0  0  0  0  0  0  0  0  0  0  0  0
   -0.3430    1.7911   27.9581 C   0  0  0  0  0  0  0  0  0  0  0  0
   -1.4164    1.2000   27.3336 C   0  0  0  0  0  0  0  0  0  0  0  0
   -1.4306   -0.1278   27.6773 N   0  0  0  0  0  0  0  0  0  0  0  0
    0.8575   -2.2162   29.6749 O   0  0  0  0  0  0  0  0  0  0  0  0
   -0.2308   -6.4509   31.7778 N   0  0  0  0  0  0  0  0  0  0  0  0
   -0.4914   -7.0805   30.5935 C   0  0  0  0  0  0  0  0  0  0  0  0
   -1.3052   -8.0934   30.7739 N   0  0  0  0  0  0  0  0  0  0  0  0
   -1.5786   -8.1679   32.1156 N   0  0  0  0  0  0  0  0  0  0  0  0
   -0.9257   -7.1966   32.7154 C   0  0  0  0  0  0  0  0  0  0  0  0
   -0.8385   -6.8043   34.0737 C   0  0  0  0  0  0  0  0  0  0  0  0
   -0.0204    0.7034   36.4056 C   0  0  0  0  0  0  0  0  0  0  0  0
   -0.5677    2.0000   36.6199 C   0  0  0  0  0  0  0  0  0  0  0  0
    0.4911    2.7641   37.0419 C   0  0  0  0  0  0  0  0  0  0  0  0
    0.6550    4.1722   37.4419 C   0  0  0  0  0  0  0  0  0  0  0  0
    1.6055    1.9920   37.0864 O   0  0  0  0  0  0  0  0  0  0  0  0
    1.2927    0.7065   36.6972 N   0  0  0  0  0  0  0  0  0  0  0  0
   -4.4494   -2.5865   32.7846 H   0  0  0  0  0  0  0  0  0  0  0  0
   -6.2093   -2.4058   32.8025 H   0  0  0  0  0  0  0  0  0  0  0  0
   -5.3641   -2.6049   34.3477 H   0  0  0  0  0  0  0  0  0  0  0  0
   -2.5280   -1.6357   33.6990 H   0  0  0  0  0  0  0  0  0  0  0  0
   -3.3934   -1.6561   35.2831 H   0  0  0  0  0  0  0  0  0  0  0  0
   -1.9946    0.8300   34.9201 H   0  0  0  0  0  0  0  0  0  0  0  0
   -1.7038   -3.0986   36.3466 H   0  0  0  0  0  0  0  0  0  0  0  0
   -0.9132   -2.8938   34.7693 H   0  0  0  0  0  0  0  0  0  0  0  0
    1.2822   -3.6737   35.8730 H   0  0  0  0  0  0  0  0  0  0  0  0
    0.3657   -3.9967   37.3256 H   0  0  0  0  0  0  0  0  0  0  0  0
   -0.7058   -5.7730   36.3778 H   0  0  0  0  0  0  0  0  0  0  0  0
    1.2499   -4.1518   33.7111 H   0  0  0  0  0  0  0  0  0  0  0  0
    1.1618    0.9172   29.3615 H   0  0  0  0  0  0  0  0  0  0  0  0
   -0.0572    2.8322   27.8738 H   0  0  0  0  0  0  0  0  0  0  0  0
   -2.1642    1.6009   26.6616 H   0  0  0  0  0  0  0  0  0  0  0  0
   -2.0683   -0.8264   27.3088 H   0  0  0  0  0  0  0  0  0  0  0  0
   -0.0861   -6.7486   29.6559 H   0  0  0  0  0  0  0  0  0  0  0  0
   -1.3724   -7.4041   34.8013 H   0  0  0  0  0  0  0  0  0  0  0  0
   -1.5891    2.3279   36.5045 H   0  0  0  0  0  0  0  0  0  0  0  0
   -0.2923    4.7148   37.3651 H   0  0  0  0  0  0  0  0  0  0  0  0
    1.0026    4.2390   38.4774 H   0  0  0  0  0  0  0  0  0  0  0  0
    1.3862    4.6714   36.7988 H   0  0  0  0  0  0  0  0  0  0  0  0
  1  2  1  0
  2  3  1  0
  3  4  2  0
  3  5  1  0
  5  6  1  0
  6  7  1  0
  7  8  2  3
  8  9  1  0
  9 10  1  0
 10 11  1  0
 11 12  1  0
 12 13  1  0
 13 14  2  0
 14 15  1  0
 15 16  1  0
 16 17  2  0
 17 18  1  0
 18 19  2  0
 19 20  1  0
 20 21  2  0
 21 22  1  0
 22 23  2  0
 23 24  1  0
 19 25  1  0
 14 26  1  0
 26 27  1  0
 27 28  2  0
 28 29  1  0
 29 30  2  0
 30 31  1  0
  7 32  1  0
 32 33  1  0
 33 34  2  0
 34 35  1  0
 34 36  1  0
 36 37  1  0
 31 12  2  0
 37 32  2  0
 25 16  1  0
 30 26  1  0
 24 20  1  0
  1 38  1  0
  1 39  1  0
  1 40  1  0
  5 41  1  0
  5 42  1  0
  6 43  1  0
  9 44  1  0
  9 45  1  0
 10 46  1  0
 10 47  1  0
 11 48  1  0
 13 49  1  0
 21 50  1  0
 22 51  1  0
 23 52  1  0
 24 53  1  0
 27 54  1  0
 31 55  1  0
 33 56  1  0
 35 57  1  0
 35 58  1  0
 35 59  1  0
M  END
>  <Energy>  (572) 
99.413106612460581

>  <compound_id>  (572) 
4223

>  <target_id>  (572) 
1

>  <reference_id>  (572) 
147

>  <inspiration_ids>  (572) 
[147, 189]

>  <energy_score>  (572) 
-37.26083075821822

>  <distance_score>  (572) 
2.527042058334861

>  <path>  (572) 
/opt/xchem-fragalysis-2/maxwin/BulkDock/SCRATCH/505735/C4223-P147/C4223-P147.minimised.mol

>  <scratch_subdir>  (572) 
/opt/xchem-fragalysis-2/maxwin/BulkDock/SCRATCH/505735/C4223-P147

>  <fragmenstein_runtime>  (572) 
8.455652236938477

>  <fragmenstein_outcome>  (572) 
too moved

>  <fragmenstein_mode>  (572) 
expansion

>  <fragmenstein_error>  (572) 


$$$$
C4223-P189
     RDKit          3D

 59 63  0  0  0  0  0  0  0  0999 V2000
   -3.2662   -2.1554   32.1507 C   0  0  0  0  0  0  0  0  0  0  0  0
   -3.3907   -0.7368   32.3281 O   0  0  0  0  0  0  0  0  0  0  0  0
   -2.9485   -0.1381   33.4665 C   0  0  0  0  0  0  0  0  0  0  0  0
   -3.2064    1.0450   33.6842 O   0  0  0  0  0  0  0  0  0  0  0  0
   -2.1289   -1.0158   34.4047 C   0  0  0  0  0  0  0  0  0  0  0  0
   -1.5753   -0.2898   35.5123 N   0  0  0  0  0  0  0  0  0  0  0  0
   -0.7093   -0.7816   36.7264 C   0  0  0  0  0  0  0  0  0  0  0  0
   -0.2407   -1.8709   36.9684 N   0  0  0  0  0  0  0  0  0  0  0  0
   -0.4595   -3.0209   36.1031 C   0  0  0  0  0  0  0  0  0  0  0  0
    0.5009   -4.1588   36.4776 C   0  0  0  0  0  0  0  0  0  0  0  0
    0.0969   -5.4328   35.8831 N   0  0  0  0  0  0  0  0  0  0  0  0
   -0.0000   -5.7759   34.5449 C   0  0  0  0  0  0  0  0  0  0  0  0
    0.7422   -5.0060   33.5342 C   0  0  0  0  0  0  0  0  0  0  0  0
    0.6522   -5.3104   32.2206 C   0  0  0  0  0  0  0  0  0  0  0  0
    1.6437   -4.4917   31.0486 S   0  0  0  0  0  0  0  0  0  0  0  0
    0.4959   -3.4152   30.2918 C   0  0  0  0  0  0  0  0  0  0  0  0
   -0.7935   -3.6373   30.1468 N   0  0  0  0  0  0  0  0  0  0  0  0
   -1.3024   -2.5686   29.4464 N   0  0  0  0  0  0  0  0  0  0  0  0
   -0.3028   -1.7347   29.2223 C   0  0  0  0  0  0  0  0  0  0  0  0
   -0.4811   -0.4568   28.6086 C   0  0  0  0  0  0  0  0  0  0  0  0
    0.2524    0.7165   28.6746 C   0  0  0  0  0  0  0  0  0  0  0  0
   -0.4543    1.7143   27.9600 C   0  0  0  0  0  0  0  0  0  0  0  0
   -1.5835    1.1197   27.4466 C   0  0  0  0  0  0  0  0  0  0  0  0
   -1.5690   -0.2039   27.8045 N   0  0  0  0  0  0  0  0  0  0  0  0
    0.8789   -2.2204   29.7316 O   0  0  0  0  0  0  0  0  0  0  0  0
   -0.1439   -6.4039   31.8636 N   0  0  0  0  0  0  0  0  0  0  0  0
   -0.4000   -6.9967   30.6596 C   0  0  0  0  0  0  0  0  0  0  0  0
   -1.2330   -8.0002   30.7999 N   0  0  0  0  0  0  0  0  0  0  0  0
   -1.5145   -8.1125   32.1387 N   0  0  0  0  0  0  0  0  0  0  0  0
   -0.8505   -7.1707   32.7736 C   0  0  0  0  0  0  0  0  0  0  0  0
   -0.7438   -6.8341   34.1458 C   0  0  0  0  0  0  0  0  0  0  0  0
   -0.4786    0.3227   37.6614 C   0  0  0  0  0  0  0  0  0  0  0  0
    0.2755    0.3121   38.8628 C   0  0  0  0  0  0  0  0  0  0  0  0
    0.1676    1.5885   39.3526 C   0  0  0  0  0  0  0  0  0  0  0  0
    0.6878    2.2828   40.5427 C   0  0  0  0  0  0  0  0  0  0  0  0
   -0.6014    2.3264   38.5099 O   0  0  0  0  0  0  0  0  0  0  0  0
   -1.0119    1.5403   37.4489 N   0  0  0  0  0  0  0  0  0  0  0  0
   -3.5592   -2.4067   31.1317 H   0  0  0  0  0  0  0  0  0  0  0  0
   -3.9450   -2.6659   32.8374 H   0  0  0  0  0  0  0  0  0  0  0  0
   -2.2370   -2.4953   32.2816 H   0  0  0  0  0  0  0  0  0  0  0  0
   -1.2936   -1.4110   33.8234 H   0  0  0  0  0  0  0  0  0  0  0  0
   -2.7689   -1.8174   34.7816 H   0  0  0  0  0  0  0  0  0  0  0  0
   -1.8701    0.6786   35.6743 H   0  0  0  0  0  0  0  0  0  0  0  0
   -1.4953   -3.3663   36.2042 H   0  0  0  0  0  0  0  0  0  0  0  0
   -0.2738   -2.7682   35.0575 H   0  0  0  0  0  0  0  0  0  0  0  0
    1.5279   -3.9065   36.1896 H   0  0  0  0  0  0  0  0  0  0  0  0
    0.5128   -4.2852   37.5669 H   0  0  0  0  0  0  0  0  0  0  0  0
   -0.5411   -5.9511   36.4853 H   0  0  0  0  0  0  0  0  0  0  0  0
    1.4021   -4.2170   33.8800 H   0  0  0  0  0  0  0  0  0  0  0  0
    1.1775    0.8518   29.2198 H   0  0  0  0  0  0  0  0  0  0  0  0
   -0.1819    2.7562   27.8435 H   0  0  0  0  0  0  0  0  0  0  0  0
   -2.3947    1.5208   26.8518 H   0  0  0  0  0  0  0  0  0  0  0  0
   -2.2488   -0.9008   27.5167 H   0  0  0  0  0  0  0  0  0  0  0  0
    0.0315   -6.6444   29.7420 H   0  0  0  0  0  0  0  0  0  0  0  0
   -1.2828   -7.4562   34.8517 H   0  0  0  0  0  0  0  0  0  0  0  0
    0.8142   -0.5180   39.2944 H   0  0  0  0  0  0  0  0  0  0  0  0
    1.2928    1.6091   41.1574 H   0  0  0  0  0  0  0  0  0  0  0  0
    1.3143    3.1305   40.2492 H   0  0  0  0  0  0  0  0  0  0  0  0
   -0.1353    2.6581   41.1585 H   0  0  0  0  0  0  0  0  0  0  0  0
  1  2  1  0
  2  3  1  0
  3  4  2  0
  3  5  1  0
  5  6  1  0
  6  7  1  0
  7  8  2  3
  8  9  1  0
  9 10  1  0
 10 11  1  0
 11 12  1  0
 12 13  1  0
 13 14  2  0
 14 15  1  0
 15 16  1  0
 16 17  2  0
 17 18  1  0
 18 19  2  0
 19 20  1  0
 20 21  2  0
 21 22  1  0
 22 23  2  0
 23 24  1  0
 19 25  1  0
 14 26  1  0
 26 27  1  0
 27 28  2  0
 28 29  1  0
 29 30  2  0
 30 31  1  0
  7 32  1  0
 32 33  1  0
 33 34  2  0
 34 35  1  0
 34 36  1  0
 36 37  1  0
 31 12  2  0
 37 32  2  0
 25 16  1  0
 30 26  1  0
 24 20  1  0
  1 38  1  0
  1 39  1  0
  1 40  1  0
  5 41  1  0
  5 42  1  0
  6 43  1  0
  9 44  1  0
  9 45  1  0
 10 46  1  0
 10 47  1  0
 11 48  1  0
 13 49  1  0
 21 50  1  0
 22 51  1  0
 23 52  1  0
 24 53  1  0
 27 54  1  0
 31 55  1  0
 33 56  1  0
 35 57  1  0
 35 58  1  0
 35 59  1  0
M  END
>  <Energy>  (573) 
89.414437644702105

>  <compound_id>  (573) 
4223

>  <target_id>  (573) 
1

>  <reference_id>  (573) 
189

>  <inspiration_ids>  (573) 
[147, 189]

>  <energy_score>  (573) 
-47.25949972597442

>  <distance_score>  (573) 
2.3643742054074535

>  <path>  (573) 
/opt/xchem-fragalysis-2/maxwin/BulkDock/SCRATCH/505735/C4223-P189/C4223-P189.minimised.mol

>  <scratch_subdir>  (573) 
/opt/xchem-fragalysis-2/maxwin/BulkDock/SCRATCH/505735/C4223-P189

>  <fragmenstein_runtime>  (573) 
9.269949436187744

>  <fragmenstein_outcome>  (573) 
too moved

>  <fragmenstein_mode>  (573) 
expansion

>  <fragmenstein_error>  (573) 


$$$$
C4227-P147
     RDKit          3D

 55 59  0  0  0  0  0  0  0  0999 V2000
   -1.3060   -0.5647   31.1895 C   0  0  0  0  0  0  0  0  0  0  0  0
   -2.2400   -1.5695   32.2736 S   0  0  0  0  0  0  0  0  0  0  0  0
   -2.4423   -2.8884   31.7238 O   0  0  0  0  0  0  0  0  0  0  0  0
   -3.3312   -0.7714   32.7786 O   0  0  0  0  0  0  0  0  0  0  0  0
   -1.1528   -1.6206   33.5306 N   0  0  0  0  0  0  0  0  0  0  0  0
   -0.0437   -2.5613   33.5109 C   0  0  0  0  0  0  0  0  0  0  0  0
    1.0029   -2.1301   34.5560 C   0  0  0  0  0  0  0  0  0  0  0  0
    0.9524   -2.9730   35.8307 C   0  0  0  0  0  0  0  0  0  0  0  0
    1.0802   -4.4862   35.5798 C   0  0  0  0  0  0  0  0  0  0  0  0
    0.4616   -4.9691   34.2397 C   0  0  0  0  0  0  0  0  0  0  0  0
   -0.1959   -6.3660   34.4088 C   0  0  0  0  0  0  0  0  0  0  0  0
   -0.6605   -6.9004   33.0983 C   0  0  0  0  0  0  0  0  0  0  0  0
   -1.5570   -7.8328   32.8791 N   0  0  0  0  0  0  0  0  0  0  0  0
   -1.6112   -8.0498   31.5266 N   0  0  0  0  0  0  0  0  0  0  0  0
   -0.7548   -7.2434   30.9531 C   0  0  0  0  0  0  0  0  0  0  0  0
   -0.4967   -7.1548   29.6471 N   0  0  0  0  0  0  0  0  0  0  0  0
   -0.1321   -6.4806   31.8943 N   0  0  0  0  0  0  0  0  0  0  0  0
    1.1195   -5.7387   31.8322 C   0  0  0  0  0  0  0  0  0  0  0  0
    1.7530   -4.9107   30.3620 S   0  0  0  0  0  0  0  0  0  0  0  0
    0.6767   -3.6985   29.7797 C   0  0  0  0  0  0  0  0  0  0  0  0
   -0.5923   -3.8790   29.5066 N   0  0  0  0  0  0  0  0  0  0  0  0
   -1.0152   -2.7585   28.8298 N   0  0  0  0  0  0  0  0  0  0  0  0
    0.0170   -1.9438   28.7208 C   0  0  0  0  0  0  0  0  0  0  0  0
   -0.1187   -0.5984   28.2411 C   0  0  0  0  0  0  0  0  0  0  0  0
    0.6618    0.5357   28.3935 C   0  0  0  0  0  0  0  0  0  0  0  0
   -0.0619    1.6390   27.8752 C   0  0  0  0  0  0  0  0  0  0  0  0
   -1.2497    1.1492   27.3846 C   0  0  0  0  0  0  0  0  0  0  0  0
   -1.2499   -0.2111   27.5560 N   0  0  0  0  0  0  0  0  0  0  0  0
    1.1345   -2.4829   29.3185 O   0  0  0  0  0  0  0  0  0  0  0  0
    1.5640   -5.0747   33.1570 C   0  0  0  0  0  0  0  0  0  0  0  0
   -0.6033   -3.9521   33.8181 C   0  0  0  0  0  0  0  0  0  0  0  0
   -1.1865    0.4235   31.6411 H   0  0  0  0  0  0  0  0  0  0  0  0
   -1.8880   -0.4616   30.2755 H   0  0  0  0  0  0  0  0  0  0  0  0
   -0.3285   -1.0067   31.0340 H   0  0  0  0  0  0  0  0  0  0  0  0
   -1.6278   -1.4877   34.4266 H   0  0  0  0  0  0  0  0  0  0  0  0
    0.4288   -2.5342   32.5251 H   0  0  0  0  0  0  0  0  0  0  0  0
    0.8919   -1.0693   34.8130 H   0  0  0  0  0  0  0  0  0  0  0  0
    2.0060   -2.2252   34.1227 H   0  0  0  0  0  0  0  0  0  0  0  0
    1.7421   -2.6528   36.5204 H   0  0  0  0  0  0  0  0  0  0  0  0
    0.0026   -2.7768   36.3449 H   0  0  0  0  0  0  0  0  0  0  0  0
    0.6036   -5.0000   36.4248 H   0  0  0  0  0  0  0  0  0  0  0  0
    2.1398   -4.7667   35.6286 H   0  0  0  0  0  0  0  0  0  0  0  0
    0.5265   -7.0725   34.8367 H   0  0  0  0  0  0  0  0  0  0  0  0
   -1.0438   -6.3106   35.1021 H   0  0  0  0  0  0  0  0  0  0  0  0
   -1.1851   -7.6272   29.0644 H   0  0  0  0  0  0  0  0  0  0  0  0
   -0.3725   -6.2172   29.2578 H   0  0  0  0  0  0  0  0  0  0  0  0
    1.7960   -6.5920   31.8126 H   0  0  0  0  0  0  0  0  0  0  0  0
    1.6285    0.5743   28.8786 H   0  0  0  0  0  0  0  0  0  0  0  0
    0.2434    2.6780   27.8668 H   0  0  0  0  0  0  0  0  0  0  0  0
   -2.0871    1.6438   26.9080 H   0  0  0  0  0  0  0  0  0  0  0  0
   -1.9653   -0.8520   27.2252 H   0  0  0  0  0  0  0  0  0  0  0  0
    2.0407   -4.1087   32.9676 H   0  0  0  0  0  0  0  0  0  0  0  0
    2.3770   -5.6910   33.5728 H   0  0  0  0  0  0  0  0  0  0  0  0
   -1.3395   -3.8732   34.6280 H   0  0  0  0  0  0  0  0  0  0  0  0
   -1.1551   -4.3191   32.9531 H   0  0  0  0  0  0  0  0  0  0  0  0
  1  2  1  0
  2  3  2  0
  2  4  2  0
  2  5  1  0
  5  6  1  0
  6  7  1  0
  7  8  1  0
  8  9  1  0
  9 10  1  0
 10 11  1  0
 11 12  1  0
 12 13  2  0
 13 14  1  0
 14 15  2  0
 15 16  1  0
 15 17  1  0
 17 18  1  0
 18 19  1  0
 19 20  1  0
 20 21  2  0
 21 22  1  0
 22 23  2  0
 23 24  1  0
 24 25  2  0
 25 26  1  0
 26 27  2  0
 27 28  1  0
 23 29  1  0
 18 30  1  0
 10 31  1  0
 31  6  1  0
 30 10  1  0
 17 12  1  0
 29 20  1  0
 28 24  1  0
  1 32  1  0
  1 33  1  0
  1 34  1  0
  5 35  1  0
  6 36  1  0
  7 37  1  0
  7 38  1  0
  8 39  1  0
  8 40  1  0
  9 41  1  0
  9 42  1  0
 11 43  1  0
 11 44  1  0
 16 45  1  0
 16 46  1  0
 18 47  1  0
 25 48  1  0
 26 49  1  0
 27 50  1  0
 28 51  1  0
 30 52  1  0
 30 53  1  0
 31 54  1  0
 31 55  1  0
M  END
>  <Energy>  (574) 
-36.933404636008099

>  <compound_id>  (574) 
4227

>  <target_id>  (574) 
1

>  <reference_id>  (574) 
147

>  <inspiration_ids>  (574) 
[147, 197]

>  <energy_score>  (574) 
-51.455720396414364

>  <distance_score>  (574) 
1.9197799548615422

>  <path>  (574) 
/opt/xchem-fragalysis-2/maxwin/BulkDock/SCRATCH/505735/C4227-P147/C4227-P147.minimised.mol

>  <scratch_subdir>  (574) 
/opt/xchem-fragalysis-2/maxwin/BulkDock/SCRATCH/505735/C4227-P147

>  <fragmenstein_runtime>  (574) 
4.17967963218689

>  <fragmenstein_outcome>  (574) 
too moved

>  <fragmenstein_mode>  (574) 
expansion

>  <fragmenstein_error>  (574) 


$$$$
C4227-P197
     RDKit          3D

 55 59  0  0  0  0  0  0  0  0999 V2000
   -1.0766   -1.1105   31.2796 C   0  0  0  0  0  0  0  0  0  0  0  0
   -2.1482   -1.9339   32.3783 S   0  0  0  0  0  0  0  0  0  0  0  0
   -2.3553   -3.2845   31.9070 O   0  0  0  0  0  0  0  0  0  0  0  0
   -3.2386   -1.0419   32.6868 O   0  0  0  0  0  0  0  0  0  0  0  0
   -1.1875   -1.9177   33.7395 N   0  0  0  0  0  0  0  0  0  0  0  0
   -0.0551   -2.8246   33.8424 C   0  0  0  0  0  0  0  0  0  0  0  0
    0.9647   -2.3444   34.8898 C   0  0  0  0  0  0  0  0  0  0  0  0
    1.2285   -3.3585   36.0131 C   0  0  0  0  0  0  0  0  0  0  0  0
    1.4555   -4.8116   35.5455 C   0  0  0  0  0  0  0  0  0  0  0  0
    0.6195   -5.2174   34.3051 C   0  0  0  0  0  0  0  0  0  0  0  0
    0.0594   -6.6598   34.4182 C   0  0  0  0  0  0  0  0  0  0  0  0
   -0.4267   -7.1737   33.0995 C   0  0  0  0  0  0  0  0  0  0  0  0
   -1.2591   -8.1669   32.8892 N   0  0  0  0  0  0  0  0  0  0  0  0
   -1.3770   -8.3398   31.5341 N   0  0  0  0  0  0  0  0  0  0  0  0
   -0.6470   -7.4269   30.9464 C   0  0  0  0  0  0  0  0  0  0  0  0
   -0.5208   -7.2250   29.6352 N   0  0  0  0  0  0  0  0  0  0  0  0
   -0.0300   -6.6574   31.8820 N   0  0  0  0  0  0  0  0  0  0  0  0
    0.6916   -5.3949   31.7519 C   0  0  0  0  0  0  0  0  0  0  0  0
    1.7982   -5.1413   30.3335 S   0  0  0  0  0  0  0  0  0  0  0  0
    0.9270   -3.9029   29.4664 C   0  0  0  0  0  0  0  0  0  0  0  0
   -0.3289   -4.0236   29.0996 N   0  0  0  0  0  0  0  0  0  0  0  0
   -0.6775   -2.8490   28.4897 N   0  0  0  0  0  0  0  0  0  0  0  0
    0.3615   -2.0410   28.5733 C   0  0  0  0  0  0  0  0  0  0  0  0
    0.1948   -0.6258   28.4453 C   0  0  0  0  0  0  0  0  0  0  0  0
    0.9959    0.4399   28.8127 C   0  0  0  0  0  0  0  0  0  0  0  0
    0.1553    1.5736   28.9426 C   0  0  0  0  0  0  0  0  0  0  0  0
   -1.1090    1.1840   28.5623 C   0  0  0  0  0  0  0  0  0  0  0  0
   -1.0302   -0.1017   28.0918 N   0  0  0  0  0  0  0  0  0  0  0  0
    1.4425   -2.6675   29.1598 O   0  0  0  0  0  0  0  0  0  0  0  0
    1.5230   -5.1730   33.0340 C   0  0  0  0  0  0  0  0  0  0  0  0
   -0.5529   -4.2286   34.1910 C   0  0  0  0  0  0  0  0  0  0  0  0
   -0.8483   -0.1161   31.6681 H   0  0  0  0  0  0  0  0  0  0  0  0
   -1.6531   -1.0234   30.3632 H   0  0  0  0  0  0  0  0  0  0  0  0
   -0.1709   -1.6918   31.1441 H   0  0  0  0  0  0  0  0  0  0  0  0
   -1.7519   -1.7929   34.5836 H   0  0  0  0  0  0  0  0  0  0  0  0
    0.4551   -2.8103   32.8773 H   0  0  0  0  0  0  0  0  0  0  0  0
    0.6620   -1.3875   35.3324 H   0  0  0  0  0  0  0  0  0  0  0  0
    1.9177   -2.1493   34.3806 H   0  0  0  0  0  0  0  0  0  0  0  0
    2.0882   -3.0316   36.6101 H   0  0  0  0  0  0  0  0  0  0  0  0
    0.3697   -3.3443   36.6973 H   0  0  0  0  0  0  0  0  0  0  0  0
    1.2231   -5.4709   36.3918 H   0  0  0  0  0  0  0  0  0  0  0  0
    2.5243   -4.9569   35.3436 H   0  0  0  0  0  0  0  0  0  0  0  0
    0.8484   -7.3371   34.7697 H   0  0  0  0  0  0  0  0  0  0  0  0
   -0.7516   -6.7039   35.1550 H   0  0  0  0  0  0  0  0  0  0  0  0
   -1.2030   -7.7173   29.0631 H   0  0  0  0  0  0  0  0  0  0  0  0
   -0.4696   -6.2622   29.2913 H   0  0  0  0  0  0  0  0  0  0  0  0
   -0.0955   -4.6444   31.6729 H   0  0  0  0  0  0  0  0  0  0  0  0
    2.0352    0.3776   29.1099 H   0  0  0  0  0  0  0  0  0  0  0  0
    0.4352    2.5573   29.2982 H   0  0  0  0  0  0  0  0  0  0  0  0
   -2.0458    1.7249   28.5176 H   0  0  0  0  0  0  0  0  0  0  0  0
   -1.8103   -0.6461   27.7367 H   0  0  0  0  0  0  0  0  0  0  0  0
    2.0736   -4.2259   32.9841 H   0  0  0  0  0  0  0  0  0  0  0  0
    2.2924   -5.9553   33.1224 H   0  0  0  0  0  0  0  0  0  0  0  0
   -1.1223   -4.2083   35.1310 H   0  0  0  0  0  0  0  0  0  0  0  0
   -1.2659   -4.5878   33.4520 H   0  0  0  0  0  0  0  0  0  0  0  0
  1  2  1  0
  2  3  2  0
  2  4  2  0
  2  5  1  0
  5  6  1  0
  6  7  1  0
  7  8  1  0
  8  9  1  0
  9 10  1  0
 10 11  1  0
 11 12  1  0
 12 13  2  0
 13 14  1  0
 14 15  2  0
 15 16  1  0
 15 17  1  0
 17 18  1  0
 18 19  1  0
 19 20  1  0
 20 21  2  0
 21 22  1  0
 22 23  2  0
 23 24  1  0
 24 25  2  0
 25 26  1  0
 26 27  2  0
 27 28  1  0
 23 29  1  0
 18 30  1  0
 10 31  1  0
 31  6  1  0
 30 10  1  0
 17 12  1  0
 29 20  1  0
 28 24  1  0
  1 32  1  0
  1 33  1  0
  1 34  1  0
  5 35  1  0
  6 36  1  0
  7 37  1  0
  7 38  1  0
  8 39  1  0
  8 40  1  0
  9 41  1  0
  9 42  1  0
 11 43  1  0
 11 44  1  0
 16 45  1  0
 16 46  1  0
 18 47  1  0
 25 48  1  0
 26 49  1  0
 27 50  1  0
 28 51  1  0
 30 52  1  0
 30 53  1  0
 31 54  1  0
 31 55  1  0
M  END
>  <Energy>  (575) 
-44.811055687336548

>  <compound_id>  (575) 
4227

>  <target_id>  (575) 
1

>  <reference_id>  (575) 
197

>  <inspiration_ids>  (575) 
[147, 197]

>  <energy_score>  (575) 
-59.33337144773971

>  <distance_score>  (575) 
2.0032948463604274

>  <path>  (575) 
/opt/xchem-fragalysis-2/maxwin/BulkDock/SCRATCH/505735/C4227-P197/C4227-P197.minimised.mol

>  <scratch_subdir>  (575) 
/opt/xchem-fragalysis-2/maxwin/BulkDock/SCRATCH/505735/C4227-P197

>  <fragmenstein_runtime>  (575) 
3.956104040145874

>  <fragmenstein_outcome>  (575) 
too moved

>  <fragmenstein_mode>  (575) 
expansion

>  <fragmenstein_error>  (575) 


$$$$
C3788-P147
     RDKit          3D

 50 54  0  0  0  0  0  0  0  0999 V2000
    3.3480   -1.0186   35.5237 C   0  0  0  0  0  0  0  0  0  0  0  0
    2.7618   -2.1249   34.7160 N   0  0  0  0  0  0  0  0  0  0  0  0
    4.2373   -2.5774   34.7433 C   0  0  0  0  0  0  0  0  0  0  0  0
    4.9112   -3.1951   35.9679 C   0  0  0  0  0  0  0  0  0  0  0  0
    4.4969   -4.4214   36.5067 C   0  0  0  0  0  0  0  0  0  0  0  0
    5.1500   -4.9721   37.6118 C   0  0  0  0  0  0  0  0  0  0  0  0
    6.2356   -4.3137   38.1835 C   0  0  0  0  0  0  0  0  0  0  0  0
    6.6741   -3.1058   37.6483 C   0  0  0  0  0  0  0  0  0  0  0  0
    6.0207   -2.5521   36.5455 C   0  0  0  0  0  0  0  0  0  0  0  0
    1.8299   -3.2605   35.1242 C   0  0  0  0  0  0  0  0  0  0  0  0
    1.4370   -3.5594   36.1567 O   0  0  0  0  0  0  0  0  0  0  0  0
    1.5717   -3.8934   33.7299 N   0  0  0  0  0  0  0  0  0  0  0  0
    0.7377   -4.9160   33.3596 C   0  0  0  0  0  0  0  0  0  0  0  0
    0.0172   -5.6674   34.3899 C   0  0  0  0  0  0  0  0  0  0  0  0
   -0.7462   -6.7365   34.0982 C   0  0  0  0  0  0  0  0  0  0  0  0
   -0.8886   -7.1377   32.7499 C   0  0  0  0  0  0  0  0  0  0  0  0
   -1.5573   -8.1169   32.1825 N   0  0  0  0  0  0  0  0  0  0  0  0
   -1.3283   -8.0575   30.8323 N   0  0  0  0  0  0  0  0  0  0  0  0
   -0.5239   -7.0443   30.6144 C   0  0  0  0  0  0  0  0  0  0  0  0
   -0.2138   -6.4051   31.7841 N   0  0  0  0  0  0  0  0  0  0  0  0
    0.6024   -5.2947   32.0617 C   0  0  0  0  0  0  0  0  0  0  0  0
    1.5607   -4.5779   30.7878 S   0  0  0  0  0  0  0  0  0  0  0  0
    0.4459   -3.4082   30.1380 C   0  0  0  0  0  0  0  0  0  0  0  0
   -0.8452   -3.5898   29.9655 N   0  0  0  0  0  0  0  0  0  0  0  0
   -1.3168   -2.4722   29.3192 N   0  0  0  0  0  0  0  0  0  0  0  0
   -0.2921   -1.6564   29.1530 C   0  0  0  0  0  0  0  0  0  0  0  0
   -0.4198   -0.3630   28.5629 C   0  0  0  0  0  0  0  0  0  0  0  0
    0.2938    0.8118   28.7273 C   0  0  0  0  0  0  0  0  0  0  0  0
   -0.3480    1.8215   27.9695 C   0  0  0  0  0  0  0  0  0  0  0  0
   -1.4162    1.2321   27.3344 C   0  0  0  0  0  0  0  0  0  0  0  0
   -1.4234   -0.0993   27.6613 N   0  0  0  0  0  0  0  0  0  0  0  0
    0.8681   -2.1935   29.6575 O   0  0  0  0  0  0  0  0  0  0  0  0
    4.0789   -0.3642   35.0259 H   0  0  0  0  0  0  0  0  0  0  0  0
    3.5601   -1.2736   36.5699 H   0  0  0  0  0  0  0  0  0  0  0  0
    2.4839   -0.3467   35.6457 H   0  0  0  0  0  0  0  0  0  0  0  0
    4.9075   -1.8957   34.1875 H   0  0  0  0  0  0  0  0  0  0  0  0
    4.2218   -3.4254   34.0370 H   0  0  0  0  0  0  0  0  0  0  0  0
    3.6607   -4.9680   36.0788 H   0  0  0  0  0  0  0  0  0  0  0  0
    4.8068   -5.9161   38.0283 H   0  0  0  0  0  0  0  0  0  0  0  0
    6.7395   -4.7437   39.0453 H   0  0  0  0  0  0  0  0  0  0  0  0
    7.5252   -2.5944   38.0909 H   0  0  0  0  0  0  0  0  0  0  0  0
    6.3862   -1.6101   36.1418 H   0  0  0  0  0  0  0  0  0  0  0  0
    2.0110   -3.3282   33.0130 H   0  0  0  0  0  0  0  0  0  0  0  0
    0.1032   -5.3612   35.4280 H   0  0  0  0  0  0  0  0  0  0  0  0
   -1.2607   -7.2984   34.8696 H   0  0  0  0  0  0  0  0  0  0  0  0
   -0.1602   -6.7208   29.6567 H   0  0  0  0  0  0  0  0  0  0  0  0
    1.1591    0.9396   29.3643 H   0  0  0  0  0  0  0  0  0  0  0  0
   -0.0742    2.8673   27.9046 H   0  0  0  0  0  0  0  0  0  0  0  0
   -2.1682    1.6405   26.6718 H   0  0  0  0  0  0  0  0  0  0  0  0
   -2.0598   -0.7970   27.2888 H   0  0  0  0  0  0  0  0  0  0  0  0
  1  2  1  0
  2  3  1  0
  3  4  1  0
  4  5  2  0
  5  6  1  0
  6  7  2  0
  7  8  1  0
  8  9  2  0
  2 10  1  0
 10 11  2  0
 10 12  1  0
 12 13  1  0
 13 14  1  0
 14 15  2  0
 15 16  1  0
 16 17  2  0
 17 18  1  0
 18 19  2  0
 19 20  1  0
 20 21  1  0
 21 22  1  0
 22 23  1  0
 23 24  2  0
 24 25  1  0
 25 26  2  0
 26 27  1  0
 27 28  2  0
 28 29  1  0
 29 30  2  0
 30 31  1  0
 26 32  1  0
  9  4  1  0
 21 13  2  0
 32 23  1  0
 20 16  1  0
 31 27  1  0
  1 33  1  0
  1 34  1  0
  1 35  1  0
  3 36  1  0
  3 37  1  0
  5 38  1  0
  6 39  1  0
  7 40  1  0
  8 41  1  0
  9 42  1  0
 12 43  1  0
 14 44  1  0
 15 45  1  0
 19 46  1  0
 28 47  1  0
 29 48  1  0
 30 49  1  0
 31 50  1  0
M  END
>  <Energy>  (576) 
81.5236162863348

>  <compound_id>  (576) 
3788

>  <target_id>  (576) 
1

>  <reference_id>  (576) 
147

>  <inspiration_ids>  (576) 
[147, 198]

>  <energy_score>  (576) 
30.689744616636006

>  <distance_score>  (576) 
2.981880197965051

>  <path>  (576) 
/opt/xchem-fragalysis-2/maxwin/BulkDock/SCRATCH/505735/C3788-P147/C3788-P147.minimised.mol

>  <scratch_subdir>  (576) 
/opt/xchem-fragalysis-2/maxwin/BulkDock/SCRATCH/505735/C3788-P147

>  <fragmenstein_runtime>  (576) 
8.448157548904419

>  <fragmenstein_outcome>  (576) 
too moved

>  <fragmenstein_mode>  (576) 
expansion

>  <fragmenstein_error>  (576) 


$$$$
C3788-P198
     RDKit          3D

 50 54  0  0  0  0  0  0  0  0999 V2000
    2.9246   -1.8410   36.7525 C   0  0  0  0  0  0  0  0  0  0  0  0
    2.4208   -2.7902   35.7227 N   0  0  0  0  0  0  0  0  0  0  0  0
    3.8414   -3.3770   35.8844 C   0  0  0  0  0  0  0  0  0  0  0  0
    4.3041   -4.1533   37.1159 C   0  0  0  0  0  0  0  0  0  0  0  0
    3.7290   -5.3769   37.4871 C   0  0  0  0  0  0  0  0  0  0  0  0
    4.1904   -6.0715   38.6078 C   0  0  0  0  0  0  0  0  0  0  0  0
    5.2436   -5.5621   39.3629 C   0  0  0  0  0  0  0  0  0  0  0  0
    5.8405   -4.3589   38.9969 C   0  0  0  0  0  0  0  0  0  0  0  0
    5.3782   -3.6612   37.8794 C   0  0  0  0  0  0  0  0  0  0  0  0
    1.4225   -3.8553   35.8195 C   0  0  0  0  0  0  0  0  0  0  0  0
    0.8446   -4.2733   36.7556 O   0  0  0  0  0  0  0  0  0  0  0  0
    1.3199   -4.2141   34.3968 N   0  0  0  0  0  0  0  0  0  0  0  0
    0.5935   -5.1930   33.7687 C   0  0  0  0  0  0  0  0  0  0  0  0
   -0.2523   -6.0880   34.5591 C   0  0  0  0  0  0  0  0  0  0  0  0
   -0.9516   -7.0928   34.0021 C   0  0  0  0  0  0  0  0  0  0  0  0
   -0.8879   -7.2943   32.6038 C   0  0  0  0  0  0  0  0  0  0  0  0
   -1.4595   -8.1702   31.8065 N   0  0  0  0  0  0  0  0  0  0  0  0
   -1.0158   -7.9308   30.5313 N   0  0  0  0  0  0  0  0  0  0  0  0
   -0.1834   -6.9168   30.5870 C   0  0  0  0  0  0  0  0  0  0  0  0
   -0.0791   -6.4417   31.8680 N   0  0  0  0  0  0  0  0  0  0  0  0
    0.6583   -5.3805   32.4244 C   0  0  0  0  0  0  0  0  0  0  0  0
    1.6992   -4.4071   31.4099 S   0  0  0  0  0  0  0  0  0  0  0  0
    0.4924   -3.4229   30.6240 C   0  0  0  0  0  0  0  0  0  0  0  0
   -0.7654   -3.7636   30.4416 N   0  0  0  0  0  0  0  0  0  0  0  0
   -1.3400   -2.7567   29.6995 N   0  0  0  0  0  0  0  0  0  0  0  0
   -0.4042   -1.8488   29.4918 C   0  0  0  0  0  0  0  0  0  0  0  0
   -0.6216   -0.6256   28.7964 C   0  0  0  0  0  0  0  0  0  0  0  0
   -0.0103    0.6063   28.9344 C   0  0  0  0  0  0  0  0  0  0  0  0
   -0.6629    1.5100   28.0600 C   0  0  0  0  0  0  0  0  0  0  0  0
   -1.6263    0.7970   27.3843 C   0  0  0  0  0  0  0  0  0  0  0  0
   -1.5690   -0.5073   27.8080 N   0  0  0  0  0  0  0  0  0  0  0  0
    0.7902   -2.2093   30.0666 O   0  0  0  0  0  0  0  0  0  0  0  0
    3.7726   -1.2029   36.4659 H   0  0  0  0  0  0  0  0  0  0  0  0
    2.9546   -2.2476   37.7710 H   0  0  0  0  0  0  0  0  0  0  0  0
    2.0967   -1.1197   36.8309 H   0  0  0  0  0  0  0  0  0  0  0  0
    4.6160   -2.6829   35.5117 H   0  0  0  0  0  0  0  0  0  0  0  0
    3.8780   -4.1435   35.0916 H   0  0  0  0  0  0  0  0  0  0  0  0
    2.9104   -5.8088   36.9177 H   0  0  0  0  0  0  0  0  0  0  0  0
    3.7205   -7.0096   38.8948 H   0  0  0  0  0  0  0  0  0  0  0  0
    5.5966   -6.1033   40.2370 H   0  0  0  0  0  0  0  0  0  0  0  0
    6.6651   -3.9629   39.5843 H   0  0  0  0  0  0  0  0  0  0  0  0
    5.8641   -2.7250   37.6122 H   0  0  0  0  0  0  0  0  0  0  0  0
    1.9084   -3.5938   33.8543 H   0  0  0  0  0  0  0  0  0  0  0  0
   -0.3269   -5.9415   35.6323 H   0  0  0  0  0  0  0  0  0  0  0  0
   -1.5644   -7.7575   34.5999 H   0  0  0  0  0  0  0  0  0  0  0  0
    0.3498   -6.4874   29.7550 H   0  0  0  0  0  0  0  0  0  0  0  0
    0.7909    0.8442   29.6219 H   0  0  0  0  0  0  0  0  0  0  0  0
   -0.4633    2.5684   27.9434 H   0  0  0  0  0  0  0  0  0  0  0  0
   -2.3463    1.0981   26.6349 H   0  0  0  0  0  0  0  0  0  0  0  0
   -2.1263   -1.2725   27.4393 H   0  0  0  0  0  0  0  0  0  0  0  0
  1  2  1  0
  2  3  1  0
  3  4  1  0
  4  5  2  0
  5  6  1  0
  6  7  2  0
  7  8  1  0
  8  9  2  0
  2 10  1  0
 10 11  2  0
 10 12  1  0
 12 13  1  0
 13 14  1  0
 14 15  2  0
 15 16  1  0
 16 17  2  0
 17 18  1  0
 18 19  2  0
 19 20  1  0
 20 21  1  0
 21 22  1  0
 22 23  1  0
 23 24  2  0
 24 25  1  0
 25 26  2  0
 26 27  1  0
 27 28  2  0
 28 29  1  0
 29 30  2  0
 30 31  1  0
 26 32  1  0
  9  4  1  0
 21 13  2  0
 32 23  1  0
 20 16  1  0
 31 27  1  0
  1 33  1  0
  1 34  1  0
  1 35  1  0
  3 36  1  0
  3 37  1  0
  5 38  1  0
  6 39  1  0
  7 40  1  0
  8 41  1  0
  9 42  1  0
 12 43  1  0
 14 44  1  0
 15 45  1  0
 19 46  1  0
 28 47  1  0
 29 48  1  0
 30 49  1  0
 31 50  1  0
M  END
>  <Energy>  (577) 
64.492849143449774

>  <compound_id>  (577) 
3788

>  <target_id>  (577) 
1

>  <reference_id>  (577) 
198

>  <inspiration_ids>  (577) 
[147, 198]

>  <energy_score>  (577) 
36.56254830720218

>  <distance_score>  (577) 
3.2233768810993046

>  <path>  (577) 
/opt/xchem-fragalysis-2/maxwin/BulkDock/SCRATCH/505735/C3788-P198/C3788-P198.minimised.mol

>  <scratch_subdir>  (577) 
/opt/xchem-fragalysis-2/maxwin/BulkDock/SCRATCH/505735/C3788-P198

>  <fragmenstein_runtime>  (577) 
13.70921778678894

>  <fragmenstein_outcome>  (577) 
too moved

>  <fragmenstein_mode>  (577) 
expansion

>  <fragmenstein_error>  (577) 


$$$$
C4229-P147
     RDKit          3D

 55 59  0  0  0  0  0  0  0  0999 V2000
    5.4606   -1.8125   28.1469 C   0  0  0  0  0  0  0  0  0  0  0  0
    5.2582   -3.0225   28.8669 O   0  0  0  0  0  0  0  0  0  0  0  0
    3.8883   -3.2668   29.1901 C   0  0  0  0  0  0  0  0  0  0  0  0
    3.5405   -2.5954   30.5261 C   0  0  0  0  0  0  0  0  0  0  0  0
    2.0804   -2.8664   30.9314 C   0  0  0  0  0  0  0  0  0  0  0  0
    1.6934   -4.3690   31.1639 C   0  0  0  0  0  0  0  0  0  0  0  0
    2.2130   -4.8394   32.5908 C   0  0  0  0  0  0  0  0  0  0  0  0
    1.2255   -5.5856   33.5464 C   0  0  0  0  0  0  0  0  0  0  0  0
    0.2967   -6.4400   32.7874 C   0  0  0  0  0  0  0  0  0  0  0  0
   -0.1885   -7.6332   33.0307 N   0  0  0  0  0  0  0  0  0  0  0  0
   -0.7817   -8.0757   31.8678 N   0  0  0  0  0  0  0  0  0  0  0  0
   -0.6534   -7.1322   30.9679 C   0  0  0  0  0  0  0  0  0  0  0  0
   -0.9043   -7.2296   29.6623 N   0  0  0  0  0  0  0  0  0  0  0  0
   -0.1457   -6.0229   31.5707 N   0  0  0  0  0  0  0  0  0  0  0  0
    0.1552   -4.6961   31.0620 C   0  0  0  0  0  0  0  0  0  0  0  0
   -0.8621   -3.4369   31.8706 S   0  0  0  0  0  0  0  0  0  0  0  0
   -1.0691   -2.4457   30.4700 C   0  0  0  0  0  0  0  0  0  0  0  0
   -1.5934   -2.8982   29.3579 N   0  0  0  0  0  0  0  0  0  0  0  0
   -1.4689   -1.9033   28.4365 N   0  0  0  0  0  0  0  0  0  0  0  0
   -0.8912   -0.8888   29.0436 C   0  0  0  0  0  0  0  0  0  0  0  0
   -0.7493    0.3829   28.4352 C   0  0  0  0  0  0  0  0  0  0  0  0
   -0.1455    1.5530   28.8497 C   0  0  0  0  0  0  0  0  0  0  0  0
   -0.4590    2.5537   27.9007 C   0  0  0  0  0  0  0  0  0  0  0  0
   -1.2381    1.9646   26.9318 C   0  0  0  0  0  0  0  0  0  0  0  0
   -1.3560    0.6338   27.2302 N   0  0  0  0  0  0  0  0  0  0  0  0
   -0.5680   -1.1841   30.3432 O   0  0  0  0  0  0  0  0  0  0  0  0
    2.2790   -5.0922   29.9110 C   0  0  0  0  0  0  0  0  0  0  0  0
    3.6922   -4.7733   29.4044 C   0  0  0  0  0  0  0  0  0  0  0  0
    3.9354   -5.6707   28.3094 O   0  0  0  0  0  0  0  0  0  0  0  0
    3.5731   -5.1950   27.0266 C   0  0  0  0  0  0  0  0  0  0  0  0
    5.1317   -0.9491   28.7313 H   0  0  0  0  0  0  0  0  0  0  0  0
    4.9299   -1.8443   27.1904 H   0  0  0  0  0  0  0  0  0  0  0  0
    6.5303   -1.7089   27.9457 H   0  0  0  0  0  0  0  0  0  0  0  0
    3.2402   -2.9003   28.3848 H   0  0  0  0  0  0  0  0  0  0  0  0
    4.2254   -2.9269   31.3168 H   0  0  0  0  0  0  0  0  0  0  0  0
    3.6884   -1.5124   30.4427 H   0  0  0  0  0  0  0  0  0  0  0  0
    1.4875   -2.4773   30.0999 H   0  0  0  0  0  0  0  0  0  0  0  0
    1.8440   -2.2633   31.8156 H   0  0  0  0  0  0  0  0  0  0  0  0
    3.0926   -5.4645   32.4609 H   0  0  0  0  0  0  0  0  0  0  0  0
    2.5847   -3.9707   33.1502 H   0  0  0  0  0  0  0  0  0  0  0  0
    0.6585   -4.8545   34.1336 H   0  0  0  0  0  0  0  0  0  0  0  0
    1.8017   -6.1852   34.2599 H   0  0  0  0  0  0  0  0  0  0  0  0
   -0.9462   -8.1645   29.2722 H   0  0  0  0  0  0  0  0  0  0  0  0
   -0.7193   -6.5041   28.9741 H   0  0  0  0  0  0  0  0  0  0  0  0
   -0.1504   -4.7253   30.0138 H   0  0  0  0  0  0  0  0  0  0  0  0
    0.4168    1.6888   29.7642 H   0  0  0  0  0  0  0  0  0  0  0  0
   -0.1846    3.6009   27.9396 H   0  0  0  0  0  0  0  0  0  0  0  0
   -1.7179    2.3814   26.0560 H   0  0  0  0  0  0  0  0  0  0  0  0
   -1.8463   -0.0657   26.6775 H   0  0  0  0  0  0  0  0  0  0  0  0
    1.6308   -4.8403   29.0594 H   0  0  0  0  0  0  0  0  0  0  0  0
    2.1412   -6.1603   30.0079 H   0  0  0  0  0  0  0  0  0  0  0  0
    4.4477   -5.0389   30.1426 H   0  0  0  0  0  0  0  0  0  0  0  0
    4.3166   -4.4774   26.6688 H   0  0  0  0  0  0  0  0  0  0  0  0
    2.5890   -4.7306   27.0328 H   0  0  0  0  0  0  0  0  0  0  0  0
    3.5641   -6.0419   26.3354 H   0  0  0  0  0  0  0  0  0  0  0  0
  1  2  1  0
  2  3  1  0
  3  4  1  0
  4  5  1  0
  5  6  1  0
  6  7  1  0
  7  8  1  0
  8  9  1  0
  9 10  2  0
 10 11  1  0
 11 12  2  0
 12 13  1  0
 12 14  1  0
 14 15  1  0
 15 16  1  0
 16 17  1  0
 17 18  2  0
 18 19  1  0
 19 20  2  0
 20 21  1  0
 21 22  2  0
 22 23  1  0
 23 24  2  0
 24 25  1  0
 20 26  1  0
  6 27  1  0
 27 28  1  0
 28 29  1  0
 29 30  1  0
 28  3  1  0
 15  6  1  0
 26 17  1  0
 14  9  1  0
 25 21  1  0
  1 31  1  0
  1 32  1  0
  1 33  1  0
  3 34  1  0
  4 35  1  0
  4 36  1  0
  5 37  1  0
  5 38  1  0
  7 39  1  0
  7 40  1  0
  8 41  1  0
  8 42  1  0
 13 43  1  0
 13 44  1  0
 15 45  1  0
 22 46  1  0
 23 47  1  0
 24 48  1  0
 25 49  1  0
 27 50  1  0
 27 51  1  0
 28 52  1  0
 30 53  1  0
 30 54  1  0
 30 55  1  0
M  END
>  <Energy>  (578) 
57.105546993562619

>  <compound_id>  (578) 
4229

>  <target_id>  (578) 
1

>  <reference_id>  (578) 
147

>  <inspiration_ids>  (578) 
[147, 200]

>  <energy_score>  (578) 
-63.59801596344073

>  <distance_score>  (578) 
1.8156110658131357

>  <path>  (578) 
/opt/xchem-fragalysis-2/maxwin/BulkDock/SCRATCH/505735/C4229-P147/C4229-P147.minimised.mol

>  <scratch_subdir>  (578) 
/opt/xchem-fragalysis-2/maxwin/BulkDock/SCRATCH/505735/C4229-P147

>  <fragmenstein_runtime>  (578) 
5.456833124160767

>  <fragmenstein_outcome>  (578) 
too moved

>  <fragmenstein_mode>  (578) 
expansion

>  <fragmenstein_error>  (578) 


$$$$
C4229-P200
     RDKit          3D

 55 59  0  0  0  0  0  0  0  0999 V2000
    3.4818   -1.9392   27.7554 C   0  0  0  0  0  0  0  0  0  0  0  0
    3.9590   -2.9787   28.6072 O   0  0  0  0  0  0  0  0  0  0  0  0
    3.0183   -3.3705   29.6136 C   0  0  0  0  0  0  0  0  0  0  0  0
    3.1630   -2.4748   30.8346 C   0  0  0  0  0  0  0  0  0  0  0  0
    2.2250   -2.8409   32.0074 C   0  0  0  0  0  0  0  0  0  0  0  0
    1.7566   -4.3374   32.1059 C   0  0  0  0  0  0  0  0  0  0  0  0
    1.5269   -4.6722   33.6368 C   0  0  0  0  0  0  0  0  0  0  0  0
    0.9631   -6.0611   33.9890 C   0  0  0  0  0  0  0  0  0  0  0  0
    0.0927   -6.6296   32.9422 C   0  0  0  0  0  0  0  0  0  0  0  0
   -0.5959   -7.7501   32.9701 N   0  0  0  0  0  0  0  0  0  0  0  0
   -1.0391   -7.9997   31.6933 N   0  0  0  0  0  0  0  0  0  0  0  0
   -0.6095   -7.0271   30.9299 C   0  0  0  0  0  0  0  0  0  0  0  0
   -0.7181   -6.9298   29.6084 N   0  0  0  0  0  0  0  0  0  0  0  0
   -0.0010   -6.0801   31.6961 N   0  0  0  0  0  0  0  0  0  0  0  0
    0.4586   -4.7426   31.3357 C   0  0  0  0  0  0  0  0  0  0  0  0
   -0.8749   -3.5823   31.6808 S   0  0  0  0  0  0  0  0  0  0  0  0
   -0.8867   -2.6549   30.2284 C   0  0  0  0  0  0  0  0  0  0  0  0
   -1.8726   -2.7404   29.3720 N   0  0  0  0  0  0  0  0  0  0  0  0
   -1.7237   -1.7093   28.4977 N   0  0  0  0  0  0  0  0  0  0  0  0
   -0.6632   -1.0302   28.8840 C   0  0  0  0  0  0  0  0  0  0  0  0
   -0.4087    0.2754   28.3826 C   0  0  0  0  0  0  0  0  0  0  0  0
    0.6350    1.1642   28.5331 C   0  0  0  0  0  0  0  0  0  0  0  0
    0.2750    2.3674   27.8779 C   0  0  0  0  0  0  0  0  0  0  0  0
   -0.9822    2.1865   27.3507 C   0  0  0  0  0  0  0  0  0  0  0  0
   -1.3816    0.9151   27.6502 N   0  0  0  0  0  0  0  0  0  0  0  0
   -0.0190   -1.6368   29.9369 O   0  0  0  0  0  0  0  0  0  0  0  0
    2.9171   -5.1396   31.5026 C   0  0  0  0  0  0  0  0  0  0  0  0
    3.3187   -4.8293   30.0162 C   0  0  0  0  0  0  0  0  0  0  0  0
    2.6458   -5.7819   29.1648 O   0  0  0  0  0  0  0  0  0  0  0  0
    3.0131   -5.6875   27.7896 C   0  0  0  0  0  0  0  0  0  0  0  0
    3.2889   -1.0270   28.3257 H   0  0  0  0  0  0  0  0  0  0  0  0
    2.5741   -2.2569   27.2339 H   0  0  0  0  0  0  0  0  0  0  0  0
    4.2539   -1.7271   27.0110 H   0  0  0  0  0  0  0  0  0  0  0  0
    2.0063   -3.3033   29.2001 H   0  0  0  0  0  0  0  0  0  0  0  0
    4.2047   -2.5121   31.1829 H   0  0  0  0  0  0  0  0  0  0  0  0
    2.9998   -1.4243   30.5669 H   0  0  0  0  0  0  0  0  0  0  0  0
    1.3832   -2.1461   32.0250 H   0  0  0  0  0  0  0  0  0  0  0  0
    2.7834   -2.5885   32.9206 H   0  0  0  0  0  0  0  0  0  0  0  0
    2.4662   -4.5346   34.1890 H   0  0  0  0  0  0  0  0  0  0  0  0
    0.8397   -3.9223   34.0525 H   0  0  0  0  0  0  0  0  0  0  0  0
    0.4257   -6.0096   34.9424 H   0  0  0  0  0  0  0  0  0  0  0  0
    1.8040   -6.7492   34.1395 H   0  0  0  0  0  0  0  0  0  0  0  0
   -1.4062   -7.5241   29.1603 H   0  0  0  0  0  0  0  0  0  0  0  0
   -0.6423   -6.0411   29.1170 H   0  0  0  0  0  0  0  0  0  0  0  0
    0.6330   -4.7536   30.2594 H   0  0  0  0  0  0  0  0  0  0  0  0
    1.5525    0.9787   29.0765 H   0  0  0  0  0  0  0  0  0  0  0  0
    0.8573    3.2788   27.8211 H   0  0  0  0  0  0  0  0  0  0  0  0
   -1.6352    2.8618   26.8115 H   0  0  0  0  0  0  0  0  0  0  0  0
   -2.2826    0.5124   27.4211 H   0  0  0  0  0  0  0  0  0  0  0  0
    2.6420   -6.1856   31.5989 H   0  0  0  0  0  0  0  0  0  0  0  0
    3.7994   -4.9570   32.1317 H   0  0  0  0  0  0  0  0  0  0  0  0
    4.3933   -5.0330   29.9186 H   0  0  0  0  0  0  0  0  0  0  0  0
    4.0985   -5.6102   27.6754 H   0  0  0  0  0  0  0  0  0  0  0  0
    2.5113   -4.8408   27.3156 H   0  0  0  0  0  0  0  0  0  0  0  0
    2.6865   -6.6029   27.2896 H   0  0  0  0  0  0  0  0  0  0  0  0
  1  2  1  0
  2  3  1  0
  3  4  1  0
  4  5  1  0
  5  6  1  0
  6  7  1  0
  7  8  1  0
  8  9  1  0
  9 10  2  0
 10 11  1  0
 11 12  2  0
 12 13  1  0
 12 14  1  0
 14 15  1  0
 15 16  1  0
 16 17  1  0
 17 18  2  0
 18 19  1  0
 19 20  2  0
 20 21  1  0
 21 22  2  0
 22 23  1  0
 23 24  2  0
 24 25  1  0
 20 26  1  0
  6 27  1  0
 27 28  1  0
 28 29  1  0
 29 30  1  0
 28  3  1  0
 15  6  1  0
 26 17  1  0
 14  9  1  0
 25 21  1  0
  1 31  1  0
  1 32  1  0
  1 33  1  0
  3 34  1  0
  4 35  1  0
  4 36  1  0
  5 37  1  0
  5 38  1  0
  7 39  1  0
  7 40  1  0
  8 41  1  0
  8 42  1  0
 13 43  1  0
 13 44  1  0
 15 45  1  0
 22 46  1  0
 23 47  1  0
 24 48  1  0
 25 49  1  0
 27 50  1  0
 27 51  1  0
 28 52  1  0
 30 53  1  0
 30 54  1  0
 30 55  1  0
M  END
>  <Energy>  (579) 
46.414524200698693

>  <compound_id>  (579) 
4229

>  <target_id>  (579) 
1

>  <reference_id>  (579) 
200

>  <inspiration_ids>  (579) 
[147, 200]

>  <energy_score>  (579) 
-74.28903875630422

>  <distance_score>  (579) 
1.6936496225114452

>  <path>  (579) 
/opt/xchem-fragalysis-2/maxwin/BulkDock/SCRATCH/505735/C4229-P200/C4229-P200.minimised.mol

>  <scratch_subdir>  (579) 
/opt/xchem-fragalysis-2/maxwin/BulkDock/SCRATCH/505735/C4229-P200

>  <fragmenstein_runtime>  (579) 
6.43593168258667

>  <fragmenstein_outcome>  (579) 
too moved

>  <fragmenstein_mode>  (579) 
expansion

>  <fragmenstein_error>  (579) 


$$$$
C4229-P147
     RDKit          3D

 55 59  0  0  0  0  0  0  0  0999 V2000
    1.3251   -2.9089   37.8448 C   0  0  0  0  0  0  0  0  0  0  0  0
    0.4377   -3.0971   36.7519 O   0  0  0  0  0  0  0  0  0  0  0  0
    0.6876   -2.2482   35.6214 C   0  0  0  0  0  0  0  0  0  0  0  0
   -0.5457   -2.3821   34.7087 C   0  0  0  0  0  0  0  0  0  0  0  0
   -0.3133   -3.2743   33.4761 C   0  0  0  0  0  0  0  0  0  0  0  0
    0.5522   -4.5399   33.7420 C   0  0  0  0  0  0  0  0  0  0  0  0
   -0.2237   -5.4332   34.7964 C   0  0  0  0  0  0  0  0  0  0  0  0
   -0.2994   -6.9256   34.4968 C   0  0  0  0  0  0  0  0  0  0  0  0
   -0.7082   -7.1283   33.0962 C   0  0  0  0  0  0  0  0  0  0  0  0
   -1.5004   -8.0404   32.5880 N   0  0  0  0  0  0  0  0  0  0  0  0
   -1.4406   -7.9176   31.2264 N   0  0  0  0  0  0  0  0  0  0  0  0
   -0.6280   -6.9269   30.9458 C   0  0  0  0  0  0  0  0  0  0  0  0
   -0.2782   -6.5228   29.7243 N   0  0  0  0  0  0  0  0  0  0  0  0
   -0.1883   -6.3446   32.0928 N   0  0  0  0  0  0  0  0  0  0  0  0
    0.8437   -5.3500   32.4000 C   0  0  0  0  0  0  0  0  0  0  0  0
    1.6881   -4.4611   31.0396 S   0  0  0  0  0  0  0  0  0  0  0  0
    0.5625   -3.3619   30.3128 C   0  0  0  0  0  0  0  0  0  0  0  0
   -0.7040   -3.6194   30.0714 N   0  0  0  0  0  0  0  0  0  0  0  0
   -1.1995   -2.5471   29.3686 N   0  0  0  0  0  0  0  0  0  0  0  0
   -0.2139   -1.6782   29.2359 C   0  0  0  0  0  0  0  0  0  0  0  0
   -0.3785   -0.3999   28.6202 C   0  0  0  0  0  0  0  0  0  0  0  0
    0.3120    0.7928   28.7577 C   0  0  0  0  0  0  0  0  0  0  0  0
   -0.3520    1.7748   27.9832 C   0  0  0  0  0  0  0  0  0  0  0  0
   -1.4126    1.1527   27.3674 C   0  0  0  0  0  0  0  0  0  0  0  0
   -1.3936   -0.1727   27.7203 N   0  0  0  0  0  0  0  0  0  0  0  0
    0.9441   -2.1409   29.8166 O   0  0  0  0  0  0  0  0  0  0  0  0
    1.9167   -4.0954   34.3800 C   0  0  0  0  0  0  0  0  0  0  0  0
    1.9627   -2.6247   34.8336 C   0  0  0  0  0  0  0  0  0  0  0  0
    3.1783   -2.4467   35.5701 O   0  0  0  0  0  0  0  0  0  0  0  0
    3.5921   -1.0897   35.6672 C   0  0  0  0  0  0  0  0  0  0  0  0
    1.4650   -1.8472   38.0679 H   0  0  0  0  0  0  0  0  0  0  0  0
    2.2839   -3.3945   37.6513 H   0  0  0  0  0  0  0  0  0  0  0  0
    0.8837   -3.3894   38.7226 H   0  0  0  0  0  0  0  0  0  0  0  0
    0.7367   -1.2167   35.9874 H   0  0  0  0  0  0  0  0  0  0  0  0
   -1.4080   -2.7514   35.2768 H   0  0  0  0  0  0  0  0  0  0  0  0
   -0.8254   -1.3861   34.3418 H   0  0  0  0  0  0  0  0  0  0  0  0
    0.1750   -2.6361   32.7352 H   0  0  0  0  0  0  0  0  0  0  0  0
   -1.2810   -3.5541   33.0422 H   0  0  0  0  0  0  0  0  0  0  0  0
    0.1932   -5.3221   35.8020 H   0  0  0  0  0  0  0  0  0  0  0  0
   -1.2551   -5.0775   34.8780 H   0  0  0  0  0  0  0  0  0  0  0  0
   -1.0099   -7.4083   35.1769 H   0  0  0  0  0  0  0  0  0  0  0  0
    0.6790   -7.3901   34.6655 H   0  0  0  0  0  0  0  0  0  0  0  0
   -0.8775   -6.9111   28.9967 H   0  0  0  0  0  0  0  0  0  0  0  0
   -0.2406   -5.5212   29.5488 H   0  0  0  0  0  0  0  0  0  0  0  0
    1.6654   -6.0266   32.6872 H   0  0  0  0  0  0  0  0  0  0  0  0
    1.1816    0.9485   29.3829 H   0  0  0  0  0  0  0  0  0  0  0  0
   -0.0945    2.8226   27.8912 H   0  0  0  0  0  0  0  0  0  0  0  0
   -2.1747    1.5309   26.6980 H   0  0  0  0  0  0  0  0  0  0  0  0
   -2.0208   -0.8871   27.3631 H   0  0  0  0  0  0  0  0  0  0  0  0
    2.7509   -4.2379   33.6819 H   0  0  0  0  0  0  0  0  0  0  0  0
    2.1843   -4.7517   35.2189 H   0  0  0  0  0  0  0  0  0  0  0  0
    2.0282   -1.9952   33.9357 H   0  0  0  0  0  0  0  0  0  0  0  0
    3.7520   -0.6647   34.6717 H   0  0  0  0  0  0  0  0  0  0  0  0
    2.8615   -0.4935   36.2194 H   0  0  0  0  0  0  0  0  0  0  0  0
    4.5399   -1.0612   36.2116 H   0  0  0  0  0  0  0  0  0  0  0  0
  1  2  1  0
  2  3  1  0
  3  4  1  0
  4  5  1  0
  5  6  1  0
  6  7  1  0
  7  8  1  0
  8  9  1  0
  9 10  2  0
 10 11  1  0
 11 12  2  0
 12 13  1  0
 12 14  1  0
 14 15  1  0
 15 16  1  0
 16 17  1  0
 17 18  2  0
 18 19  1  0
 19 20  2  0
 20 21  1  0
 21 22  2  0
 22 23  1  0
 23 24  2  0
 24 25  1  0
 20 26  1  0
  6 27  1  0
 27 28  1  0
 28 29  1  0
 29 30  1  0
 28  3  1  0
 15  6  1  0
 26 17  1  0
 14  9  1  0
 25 21  1  0
  1 31  1  0
  1 32  1  0
  1 33  1  0
  3 34  1  0
  4 35  1  0
  4 36  1  0
  5 37  1  0
  5 38  1  0
  7 39  1  0
  7 40  1  0
  8 41  1  0
  8 42  1  0
 13 43  1  0
 13 44  1  0
 15 45  1  0
 22 46  1  0
 23 47  1  0
 24 48  1  0
 25 49  1  0
 27 50  1  0
 27 51  1  0
 28 52  1  0
 30 53  1  0
 30 54  1  0
 30 55  1  0
M  END
>  <Energy>  (580) 
53.545880627305849

>  <compound_id>  (580) 
4229

>  <target_id>  (580) 
1

>  <reference_id>  (580) 
147

>  <inspiration_ids>  (580) 
[147, 201]

>  <energy_score>  (580) 
-82.92539428066326

>  <distance_score>  (580) 
1.2450140302010633

>  <path>  (580) 
/opt/xchem-fragalysis-2/maxwin/BulkDock/SCRATCH/505735/C4229-P147/C4229-P147.minimised.mol

>  <scratch_subdir>  (580) 
/opt/xchem-fragalysis-2/maxwin/BulkDock/SCRATCH/505735/C4229-P147

>  <fragmenstein_runtime>  (580) 
3.4386866092681885

>  <fragmenstein_outcome>  (580) 
too moved

>  <fragmenstein_mode>  (580) 
expansion

>  <fragmenstein_error>  (580) 


$$$$
C4229-P201
     RDKit          3D

 55 59  0  0  0  0  0  0  0  0999 V2000
    1.9127   -3.0616   37.7102 C   0  0  0  0  0  0  0  0  0  0  0  0
    0.9307   -3.2170   36.6966 O   0  0  0  0  0  0  0  0  0  0  0  0
    1.1127   -2.3754   35.5477 C   0  0  0  0  0  0  0  0  0  0  0  0
   -0.1972   -2.4645   34.7417 C   0  0  0  0  0  0  0  0  0  0  0  0
   -0.0916   -3.3386   33.4796 C   0  0  0  0  0  0  0  0  0  0  0  0
    0.7419   -4.6388   33.6608 C   0  0  0  0  0  0  0  0  0  0  0  0
    0.0095   -5.5277   34.7506 C   0  0  0  0  0  0  0  0  0  0  0  0
   -0.1094   -7.0177   34.4417 C   0  0  0  0  0  0  0  0  0  0  0  0
   -0.6158   -7.1975   33.0690 C   0  0  0  0  0  0  0  0  0  0  0  0
   -1.4505   -8.0947   32.6042 N   0  0  0  0  0  0  0  0  0  0  0  0
   -1.5375   -7.9090   31.2530 N   0  0  0  0  0  0  0  0  0  0  0  0
   -0.7632   -6.9009   30.9324 C   0  0  0  0  0  0  0  0  0  0  0  0
   -0.6005   -6.4143   29.7009 N   0  0  0  0  0  0  0  0  0  0  0  0
   -0.1732   -6.3920   32.0448 N   0  0  0  0  0  0  0  0  0  0  0  0
    0.9056   -5.4304   32.2876 C   0  0  0  0  0  0  0  0  0  0  0  0
    1.7031   -4.5654   30.8816 S   0  0  0  0  0  0  0  0  0  0  0  0
    0.6031   -3.3770   30.2588 C   0  0  0  0  0  0  0  0  0  0  0  0
   -0.6920   -3.5493   30.1147 N   0  0  0  0  0  0  0  0  0  0  0  0
   -1.1751   -2.4394   29.4661 N   0  0  0  0  0  0  0  0  0  0  0  0
   -0.1518   -1.6290   29.2652 C   0  0  0  0  0  0  0  0  0  0  0  0
   -0.2931   -0.3319   28.6808 C   0  0  0  0  0  0  0  0  0  0  0  0
    0.4938    0.8060   28.7417 C   0  0  0  0  0  0  0  0  0  0  0  0
   -0.1730    1.8403   28.0401 C   0  0  0  0  0  0  0  0  0  0  0  0
   -1.3375    1.3048   27.5430 C   0  0  0  0  0  0  0  0  0  0  0  0
   -1.3869   -0.0160   27.9069 N   0  0  0  0  0  0  0  0  0  0  0  0
    1.0192   -2.1713   29.7484 O   0  0  0  0  0  0  0  0  0  0  0  0
    2.1649   -4.2589   34.2071 C   0  0  0  0  0  0  0  0  0  0  0  0
    2.3046   -2.7935   34.6570 C   0  0  0  0  0  0  0  0  0  0  0  0
    3.5827   -2.6632   35.2915 O   0  0  0  0  0  0  0  0  0  0  0  0
    4.0521   -1.3222   35.3527 C   0  0  0  0  0  0  0  0  0  0  0  0
    2.1100   -2.0060   37.9177 H   0  0  0  0  0  0  0  0  0  0  0  0
    2.8333   -3.5825   37.4388 H   0  0  0  0  0  0  0  0  0  0  0  0
    1.5293   -3.5254   38.6236 H   0  0  0  0  0  0  0  0  0  0  0  0
    1.2281   -1.3468   35.9072 H   0  0  0  0  0  0  0  0  0  0  0  0
   -1.0169   -2.8245   35.3751 H   0  0  0  0  0  0  0  0  0  0  0  0
   -0.4827   -1.4558   34.4165 H   0  0  0  0  0  0  0  0  0  0  0  0
    0.3635   -2.7050   32.7141 H   0  0  0  0  0  0  0  0  0  0  0  0
   -1.0982   -3.5742   33.1139 H   0  0  0  0  0  0  0  0  0  0  0  0
    0.4830   -5.4295   35.7324 H   0  0  0  0  0  0  0  0  0  0  0  0
   -1.0086   -5.1546   34.8915 H   0  0  0  0  0  0  0  0  0  0  0  0
   -0.7804   -7.4970   35.1631 H   0  0  0  0  0  0  0  0  0  0  0  0
    0.8712   -7.4973   34.5389 H   0  0  0  0  0  0  0  0  0  0  0  0
   -1.3720   -6.7036   29.0947 H   0  0  0  0  0  0  0  0  0  0  0  0
   -0.5299   -5.4040   29.5994 H   0  0  0  0  0  0  0  0  0  0  0  0
    1.7218   -6.1388   32.5077 H   0  0  0  0  0  0  0  0  0  0  0  0
    1.4373    0.8922   29.2645 H   0  0  0  0  0  0  0  0  0  0  0  0
    0.1515    2.8662   27.9169 H   0  0  0  0  0  0  0  0  0  0  0  0
   -2.1321    1.7423   26.9511 H   0  0  0  0  0  0  0  0  0  0  0  0
   -2.0965   -0.6768   27.6081 H   0  0  0  0  0  0  0  0  0  0  0  0
    2.9442   -4.4369   33.4559 H   0  0  0  0  0  0  0  0  0  0  0  0
    2.4574   -4.9282   35.0272 H   0  0  0  0  0  0  0  0  0  0  0  0
    2.3203   -2.1625   33.7579 H   0  0  0  0  0  0  0  0  0  0  0  0
    4.1478   -0.9025   34.3468 H   0  0  0  0  0  0  0  0  0  0  0  0
    3.3901   -0.7002   35.9601 H   0  0  0  0  0  0  0  0  0  0  0  0
    5.0407   -1.3289   35.8198 H   0  0  0  0  0  0  0  0  0  0  0  0
  1  2  1  0
  2  3  1  0
  3  4  1  0
  4  5  1  0
  5  6  1  0
  6  7  1  0
  7  8  1  0
  8  9  1  0
  9 10  2  0
 10 11  1  0
 11 12  2  0
 12 13  1  0
 12 14  1  0
 14 15  1  0
 15 16  1  0
 16 17  1  0
 17 18  2  0
 18 19  1  0
 19 20  2  0
 20 21  1  0
 21 22  2  0
 22 23  1  0
 23 24  2  0
 24 25  1  0
 20 26  1  0
  6 27  1  0
 27 28  1  0
 28 29  1  0
 29 30  1  0
 28  3  1  0
 15  6  1  0
 26 17  1  0
 14  9  1  0
 25 21  1  0
  1 31  1  0
  1 32  1  0
  1 33  1  0
  3 34  1  0
  4 35  1  0
  4 36  1  0
  5 37  1  0
  5 38  1  0
  7 39  1  0
  7 40  1  0
  8 41  1  0
  8 42  1  0
 13 43  1  0
 13 44  1  0
 15 45  1  0
 22 46  1  0
 23 47  1  0
 24 48  1  0
 25 49  1  0
 27 50  1  0
 27 51  1  0
 28 52  1  0
 30 53  1  0
 30 54  1  0
 30 55  1  0
M  END
>  <Energy>  (581) 
53.543970624622752

>  <compound_id>  (581) 
4229

>  <target_id>  (581) 
1

>  <reference_id>  (581) 
201

>  <inspiration_ids>  (581) 
[147, 201]

>  <energy_score>  (581) 
-82.92730428334701

>  <distance_score>  (581) 
1.2741664346978991

>  <path>  (581) 
/opt/xchem-fragalysis-2/maxwin/BulkDock/SCRATCH/505735/C4229-P201/C4229-P201.minimised.mol

>  <scratch_subdir>  (581) 
/opt/xchem-fragalysis-2/maxwin/BulkDock/SCRATCH/505735/C4229-P201

>  <fragmenstein_runtime>  (581) 
2.8327579498291016

>  <fragmenstein_outcome>  (581) 
too moved

>  <fragmenstein_mode>  (581) 
expansion

>  <fragmenstein_error>  (581) 


$$$$
C3907-P148
     RDKit          3D

 48 52  0  0  0  0  0  0  0  0999 V2000
   -1.3895   -1.5837   28.8214 C   0  0  0  0  0  0  0  0  0  0  0  0
   -0.7722   -2.5367   29.7814 N   0  0  0  0  0  0  0  0  0  0  0  0
    0.5291   -1.8933   29.2379 C   0  0  0  0  0  0  0  0  0  0  0  0
    0.8377   -0.3997   29.3876 C   0  0  0  0  0  0  0  0  0  0  0  0
    1.0886    0.1881   30.6307 C   0  0  0  0  0  0  0  0  0  0  0  0
    1.2543    1.5715   30.7341 C   0  0  0  0  0  0  0  0  0  0  0  0
    1.1722    2.3806   29.6018 C   0  0  0  0  0  0  0  0  0  0  0  0
    0.9511    1.8077   28.3552 C   0  0  0  0  0  0  0  0  0  0  0  0
    0.8006    0.4272   28.2487 C   0  0  0  0  0  0  0  0  0  0  0  0
   -0.7582   -2.5457   31.1996 C   0  0  0  0  0  0  0  0  0  0  0  0
   -1.1643   -1.7363   31.9915 O   0  0  0  0  0  0  0  0  0  0  0  0
   -0.2166   -3.8712   31.7350 C   0  0  0  0  0  0  0  0  0  0  0  0
   -0.0448   -4.0548   33.1851 C   0  0  0  0  0  0  0  0  0  0  0  0
   -0.1413   -5.2888   33.7290 C   0  0  0  0  0  0  0  0  0  0  0  0
   -0.0185   -5.5181   35.4483 S   0  0  0  0  0  0  0  0  0  0  0  0
    1.3886   -6.5529   35.5162 C   0  0  0  0  0  0  0  0  0  0  0  0
    1.9279   -7.1830   34.4896 N   0  0  0  0  0  0  0  0  0  0  0  0
    2.9735   -7.9287   34.9842 N   0  0  0  0  0  0  0  0  0  0  0  0
    3.0232   -7.6991   36.2848 C   0  0  0  0  0  0  0  0  0  0  0  0
    3.9731   -8.3023   37.1578 C   0  0  0  0  0  0  0  0  0  0  0  0
    4.0365   -8.3084   38.5369 C   0  0  0  0  0  0  0  0  0  0  0  0
    5.1596   -9.0876   38.9111 C   0  0  0  0  0  0  0  0  0  0  0  0
    5.7565   -9.5302   37.7523 C   0  0  0  0  0  0  0  0  0  0  0  0
    5.0334   -9.0454   36.6938 N   0  0  0  0  0  0  0  0  0  0  0  0
    2.0308   -6.8425   36.6900 O   0  0  0  0  0  0  0  0  0  0  0  0
   -0.4161   -6.3574   32.8638 N   0  0  0  0  0  0  0  0  0  0  0  0
   -0.8352   -7.6428   33.0832 C   0  0  0  0  0  0  0  0  0  0  0  0
   -1.0176   -8.2699   31.9422 N   0  0  0  0  0  0  0  0  0  0  0  0
   -0.7058   -7.3984   30.9319 N   0  0  0  0  0  0  0  0  0  0  0  0
   -0.3879   -6.2455   31.4827 C   0  0  0  0  0  0  0  0  0  0  0  0
   -0.2390   -4.9502   30.9188 C   0  0  0  0  0  0  0  0  0  0  0  0
   -1.5598   -0.5850   29.2433 H   0  0  0  0  0  0  0  0  0  0  0  0
   -1.0859   -1.6250   27.7691 H   0  0  0  0  0  0  0  0  0  0  0  0
   -2.4095   -1.9702   28.7529 H   0  0  0  0  0  0  0  0  0  0  0  0
    1.3289   -2.3860   29.8148 H   0  0  0  0  0  0  0  0  0  0  0  0
    0.7422   -2.2625   28.2210 H   0  0  0  0  0  0  0  0  0  0  0  0
    1.1268   -0.4130   31.5352 H   0  0  0  0  0  0  0  0  0  0  0  0
    1.4285    2.0248   31.7069 H   0  0  0  0  0  0  0  0  0  0  0  0
    1.2723    3.4598   29.6946 H   0  0  0  0  0  0  0  0  0  0  0  0
    0.8774    2.4390   27.4737 H   0  0  0  0  0  0  0  0  0  0  0  0
    0.5974   -0.0010   27.2721 H   0  0  0  0  0  0  0  0  0  0  0  0
    0.1081   -3.1604   33.7847 H   0  0  0  0  0  0  0  0  0  0  0  0
    3.3384   -7.8233   39.2083 H   0  0  0  0  0  0  0  0  0  0  0  0
    5.4908   -9.3073   39.9186 H   0  0  0  0  0  0  0  0  0  0  0  0
    6.6290  -10.1502   37.5913 H   0  0  0  0  0  0  0  0  0  0  0  0
    5.2366   -9.2186   35.7168 H   0  0  0  0  0  0  0  0  0  0  0  0
   -1.0039   -8.0587   34.0656 H   0  0  0  0  0  0  0  0  0  0  0  0
   -0.4060   -4.8748   29.8485 H   0  0  0  0  0  0  0  0  0  0  0  0
  1  2  1  0
  2  3  1  0
  3  4  1  0
  4  5  2  0
  5  6  1  0
  6  7  2  0
  7  8  1  0
  8  9  2  0
  2 10  1  0
 10 11  2  0
 10 12  1  0
 12 13  1  0
 13 14  2  0
 14 15  1  0
 15 16  1  0
 16 17  2  0
 17 18  1  0
 18 19  2  0
 19 20  1  0
 20 21  2  0
 21 22  1  0
 22 23  2  0
 23 24  1  0
 19 25  1  0
 14 26  1  0
 26 27  1  0
 27 28  2  0
 28 29  1  0
 29 30  2  0
 30 31  1  0
  9  4  1  0
 31 12  2  0
 25 16  1  0
 30 26  1  0
 24 20  1  0
  1 32  1  0
  1 33  1  0
  1 34  1  0
  3 35  1  0
  3 36  1  0
  5 37  1  0
  6 38  1  0
  7 39  1  0
  8 40  1  0
  9 41  1  0
 13 42  1  0
 21 43  1  0
 22 44  1  0
 23 45  1  0
 24 46  1  0
 27 47  1  0
 31 48  1  0
M  END
>  <Energy>  (582) 
120.50367805943988

>  <compound_id>  (582) 
3907

>  <target_id>  (582) 
1

>  <reference_id>  (582) 
148

>  <inspiration_ids>  (582) 
[148, 13]

>  <energy_score>  (582) 
29.57562427616608

>  <distance_score>  (582) 
1.7004270235979362

>  <path>  (582) 
/opt/xchem-fragalysis-2/maxwin/BulkDock/SCRATCH/505735/C3907-P148/C3907-P148.minimised.mol

>  <scratch_subdir>  (582) 
/opt/xchem-fragalysis-2/maxwin/BulkDock/SCRATCH/505735/C3907-P148

>  <fragmenstein_runtime>  (582) 
5.7498390674591064

>  <fragmenstein_outcome>  (582) 
too moved

>  <fragmenstein_mode>  (582) 
expansion

>  <fragmenstein_error>  (582) 


$$$$
C3907-P13
     RDKit          3D

 48 52  0  0  0  0  0  0  0  0999 V2000
   -1.4057   -1.4794   28.7138 C   0  0  0  0  0  0  0  0  0  0  0  0
   -0.8261   -2.4649   29.6731 N   0  0  0  0  0  0  0  0  0  0  0  0
    0.4963   -1.8411   29.1694 C   0  0  0  0  0  0  0  0  0  0  0  0
    0.8354   -0.3525   29.2870 C   0  0  0  0  0  0  0  0  0  0  0  0
    1.0830    0.3814   28.1127 C   0  0  0  0  0  0  0  0  0  0  0  0
    1.2817    1.7603   28.1550 C   0  0  0  0  0  0  0  0  0  0  0  0
    1.2522    2.4235   29.3759 C   0  0  0  0  0  0  0  0  0  0  0  0
    1.0475    1.7039   30.5512 C   0  0  0  0  0  0  0  0  0  0  0  0
    0.8497    0.3221   30.5109 C   0  0  0  0  0  0  0  0  0  0  0  0
   -0.8422   -2.4986   31.0924 C   0  0  0  0  0  0  0  0  0  0  0  0
   -1.2485   -1.6945   31.8900 O   0  0  0  0  0  0  0  0  0  0  0  0
   -0.3370   -3.8454   31.6104 C   0  0  0  0  0  0  0  0  0  0  0  0
   -0.1515   -4.0580   33.0547 C   0  0  0  0  0  0  0  0  0  0  0  0
   -0.1743   -5.3092   33.5699 C   0  0  0  0  0  0  0  0  0  0  0  0
   -0.0582   -5.5558   35.2891 S   0  0  0  0  0  0  0  0  0  0  0  0
    1.3025   -6.6471   35.3814 C   0  0  0  0  0  0  0  0  0  0  0  0
    1.9954   -7.1105   34.3591 N   0  0  0  0  0  0  0  0  0  0  0  0
    2.9225   -7.9914   34.8726 N   0  0  0  0  0  0  0  0  0  0  0  0
    2.7603   -7.9955   36.1827 C   0  0  0  0  0  0  0  0  0  0  0  0
    3.5448   -8.7841   37.0724 C   0  0  0  0  0  0  0  0  0  0  0  0
    3.4693   -8.9216   38.4442 C   0  0  0  0  0  0  0  0  0  0  0  0
    4.4787   -9.8341   38.8403 C   0  0  0  0  0  0  0  0  0  0  0  0
    5.1443  -10.2288   37.7020 C   0  0  0  0  0  0  0  0  0  0  0  0
    4.5738   -9.5850   36.6349 N   0  0  0  0  0  0  0  0  0  0  0  0
    1.7404   -7.1651   36.5728 O   0  0  0  0  0  0  0  0  0  0  0  0
   -0.4000   -6.3711   32.6796 N   0  0  0  0  0  0  0  0  0  0  0  0
   -0.7203   -7.6885   32.8692 C   0  0  0  0  0  0  0  0  0  0  0  0
   -0.9088   -8.2907   31.7166 N   0  0  0  0  0  0  0  0  0  0  0  0
   -0.7007   -7.3683   30.7253 N   0  0  0  0  0  0  0  0  0  0  0  0
   -0.4269   -6.2184   31.3022 C   0  0  0  0  0  0  0  0  0  0  0  0
   -0.3470   -4.9058   30.7721 C   0  0  0  0  0  0  0  0  0  0  0  0
   -1.5405   -0.4751   29.1349 H   0  0  0  0  0  0  0  0  0  0  0  0
   -1.0844   -1.5280   27.6649 H   0  0  0  0  0  0  0  0  0  0  0  0
   -2.4432   -1.8206   28.6376 H   0  0  0  0  0  0  0  0  0  0  0  0
    1.2729   -2.3296   29.7805 H   0  0  0  0  0  0  0  0  0  0  0  0
    0.7261   -2.2397   28.1664 H   0  0  0  0  0  0  0  0  0  0  0  0
    1.0781   -0.1184   27.1484 H   0  0  0  0  0  0  0  0  0  0  0  0
    1.4394    2.3203   27.2374 H   0  0  0  0  0  0  0  0  0  0  0  0
    1.3891    3.5016   29.4146 H   0  0  0  0  0  0  0  0  0  0  0  0
    1.0356    2.2243   31.5058 H   0  0  0  0  0  0  0  0  0  0  0  0
    0.6818   -0.2047   31.4454 H   0  0  0  0  0  0  0  0  0  0  0  0
   -0.0490   -3.1719   33.6770 H   0  0  0  0  0  0  0  0  0  0  0  0
    2.7617   -8.4231   39.0955 H   0  0  0  0  0  0  0  0  0  0  0  0
    4.6943  -10.1685   39.8477 H   0  0  0  0  0  0  0  0  0  0  0  0
    5.9729  -10.9109   37.5602 H   0  0  0  0  0  0  0  0  0  0  0  0
    4.8641   -9.6820   35.6695 H   0  0  0  0  0  0  0  0  0  0  0  0
   -0.8218   -8.1425   33.8421 H   0  0  0  0  0  0  0  0  0  0  0  0
   -0.5227   -4.8090   29.7056 H   0  0  0  0  0  0  0  0  0  0  0  0
  1  2  1  0
  2  3  1  0
  3  4  1  0
  4  5  2  0
  5  6  1  0
  6  7  2  0
  7  8  1  0
  8  9  2  0
  2 10  1  0
 10 11  2  0
 10 12  1  0
 12 13  1  0
 13 14  2  0
 14 15  1  0
 15 16  1  0
 16 17  2  0
 17 18  1  0
 18 19  2  0
 19 20  1  0
 20 21  2  0
 21 22  1  0
 22 23  2  0
 23 24  1  0
 19 25  1  0
 14 26  1  0
 26 27  1  0
 27 28  2  0
 28 29  1  0
 29 30  2  0
 30 31  1  0
  9  4  1  0
 31 12  2  0
 25 16  1  0
 30 26  1  0
 24 20  1  0
  1 32  1  0
  1 33  1  0
  1 34  1  0
  3 35  1  0
  3 36  1  0
  5 37  1  0
  6 38  1  0
  7 39  1  0
  8 40  1  0
  9 41  1  0
 13 42  1  0
 21 43  1  0
 22 44  1  0
 23 45  1  0
 24 46  1  0
 27 47  1  0
 31 48  1  0
M  END
>  <Energy>  (583) 
117.72618044190091

>  <compound_id>  (583) 
3907

>  <target_id>  (583) 
1

>  <reference_id>  (583) 
13

>  <inspiration_ids>  (583) 
[148, 13]

>  <energy_score>  (583) 
26.798126658630395

>  <distance_score>  (583) 
1.948553597811306

>  <path>  (583) 
/opt/xchem-fragalysis-2/maxwin/BulkDock/SCRATCH/505735/C3907-P13/C3907-P13.minimised.mol

>  <scratch_subdir>  (583) 
/opt/xchem-fragalysis-2/maxwin/BulkDock/SCRATCH/505735/C3907-P13

>  <fragmenstein_runtime>  (583) 
4.616319894790649

>  <fragmenstein_outcome>  (583) 
too moved

>  <fragmenstein_mode>  (583) 
expansion

>  <fragmenstein_error>  (583) 


$$$$
C4230-P148
     RDKit          3D

 54 58  0  0  0  0  0  0  0  0999 V2000
    5.1199   -0.9067   37.1660 C   0  0  0  0  0  0  0  0  0  0  0  0
    4.2789   -1.2477   36.0560 N   0  0  0  0  0  0  0  0  0  0  0  0
    4.2085   -2.5440   35.2067 C   0  0  0  0  0  0  0  0  0  0  0  0
    4.7701   -3.5596   35.3295 O   0  0  0  0  0  0  0  0  0  0  0  0
    3.1422   -2.2981   34.1171 C   0  0  0  0  0  0  0  0  0  0  0  0
    3.2750   -3.3259   32.9779 C   0  0  0  0  0  0  0  0  0  0  0  0
    2.3990   -4.5514   33.2425 C   0  0  0  0  0  0  0  0  0  0  0  0
    0.8833   -4.2162   33.1921 C   0  0  0  0  0  0  0  0  0  0  0  0
    0.4199   -4.1319   31.6982 C   0  0  0  0  0  0  0  0  0  0  0  0
    0.4788   -5.4651   30.9596 C   0  0  0  0  0  0  0  0  0  0  0  0
   -0.2142   -6.5160   31.7318 C   0  0  0  0  0  0  0  0  0  0  0  0
   -0.8091   -7.5855   31.2534 N   0  0  0  0  0  0  0  0  0  0  0  0
   -1.4307   -8.2096   32.3010 N   0  0  0  0  0  0  0  0  0  0  0  0
   -1.2040   -7.5182   33.3954 C   0  0  0  0  0  0  0  0  0  0  0  0
   -1.6689   -7.7861   34.6331 N   0  0  0  0  0  0  0  0  0  0  0  0
   -0.3896   -6.4555   33.0951 N   0  0  0  0  0  0  0  0  0  0  0  0
   -0.0447   -5.2904   33.9162 C   0  0  0  0  0  0  0  0  0  0  0  0
    0.3472   -5.6252   35.6752 S   0  0  0  0  0  0  0  0  0  0  0  0
    1.6424   -6.7732   35.6342 C   0  0  0  0  0  0  0  0  0  0  0  0
    2.0484   -7.4466   34.5778 N   0  0  0  0  0  0  0  0  0  0  0  0
    3.1091   -8.2254   34.9936 N   0  0  0  0  0  0  0  0  0  0  0  0
    3.2759   -7.9846   36.2834 C   0  0  0  0  0  0  0  0  0  0  0  0
    4.2298   -8.6487   37.1066 C   0  0  0  0  0  0  0  0  0  0  0  0
    4.3337   -8.6872   38.4831 C   0  0  0  0  0  0  0  0  0  0  0  0
    5.4062   -9.5535   38.8080 C   0  0  0  0  0  0  0  0  0  0  0  0
    5.9378  -10.0093   37.6227 C   0  0  0  0  0  0  0  0  0  0  0  0
    5.2273   -9.4439   36.5951 N   0  0  0  0  0  0  0  0  0  0  0  0
    2.3608   -7.0818   36.7535 O   0  0  0  0  0  0  0  0  0  0  0  0
    0.6516   -2.7888   33.8027 C   0  0  0  0  0  0  0  0  0  0  0  0
    1.7453   -2.3229   34.7636 C   0  0  0  0  0  0  0  0  0  0  0  0
    5.6970   -0.0173   36.9044 H   0  0  0  0  0  0  0  0  0  0  0  0
    4.4859   -0.6940   38.0294 H   0  0  0  0  0  0  0  0  0  0  0  0
    5.7904   -1.7400   37.3867 H   0  0  0  0  0  0  0  0  0  0  0  0
    3.5950   -0.5824   35.7157 H   0  0  0  0  0  0  0  0  0  0  0  0
    3.3364   -1.3092   33.6814 H   0  0  0  0  0  0  0  0  0  0  0  0
    4.3180   -3.6395   32.8512 H   0  0  0  0  0  0  0  0  0  0  0  0
    2.9873   -2.8571   32.0301 H   0  0  0  0  0  0  0  0  0  0  0  0
    2.6929   -4.9265   34.2227 H   0  0  0  0  0  0  0  0  0  0  0  0
    2.6516   -5.3429   32.5361 H   0  0  0  0  0  0  0  0  0  0  0  0
    1.0115   -3.3964   31.1407 H   0  0  0  0  0  0  0  0  0  0  0  0
   -0.6171   -3.7654   31.6730 H   0  0  0  0  0  0  0  0  0  0  0  0
    1.5119   -5.7657   30.7639 H   0  0  0  0  0  0  0  0  0  0  0  0
   -0.0003   -5.3505   29.9809 H   0  0  0  0  0  0  0  0  0  0  0  0
   -1.8826   -8.7894   34.7397 H   0  0  0  0  0  0  0  0  0  0  0  0
   -1.1153   -7.4835   35.4283 H   0  0  0  0  0  0  0  0  0  0  0  0
   -1.0250   -4.8002   33.9938 H   0  0  0  0  0  0  0  0  0  0  0  0
    3.6876   -8.1717   39.1835 H   0  0  0  0  0  0  0  0  0  0  0  0
    5.7485   -9.8197   39.8003 H   0  0  0  0  0  0  0  0  0  0  0  0
    6.7596  -10.6845   37.4223 H   0  0  0  0  0  0  0  0  0  0  0  0
    5.3913   -9.6045   35.6087 H   0  0  0  0  0  0  0  0  0  0  0  0
    0.5957   -2.0429   32.9979 H   0  0  0  0  0  0  0  0  0  0  0  0
   -0.3192   -2.7351   34.3099 H   0  0  0  0  0  0  0  0  0  0  0  0
    1.7458   -2.9590   35.6562 H   0  0  0  0  0  0  0  0  0  0  0  0
    1.4958   -1.3160   35.1212 H   0  0  0  0  0  0  0  0  0  0  0  0
  1  2  1  0
  2  3  1  0
  3  4  2  0
  3  5  1  0
  5  6  1  0
  6  7  1  0
  7  8  1  0
  8  9  1  0
  9 10  1  0
 10 11  1  0
 11 12  2  0
 12 13  1  0
 13 14  2  0
 14 15  1  0
 14 16  1  0
 16 17  1  0
 17 18  1  0
 18 19  1  0
 19 20  2  0
 20 21  1  0
 21 22  2  0
 22 23  1  0
 23 24  2  0
 24 25  1  0
 25 26  2  0
 26 27  1  0
 22 28  1  0
  8 29  1  0
 29 30  1  0
 30  5  1  0
 17  8  1  0
 28 19  1  0
 16 11  1  0
 27 23  1  0
  1 31  1  0
  1 32  1  0
  1 33  1  0
  2 34  1  0
  5 35  1  0
  6 36  1  0
  6 37  1  0
  7 38  1  0
  7 39  1  0
  9 40  1  0
  9 41  1  0
 10 42  1  0
 10 43  1  0
 15 44  1  0
 15 45  1  0
 17 46  1  0
 24 47  1  0
 25 48  1  0
 26 49  1  0
 27 50  1  0
 29 51  1  0
 29 52  1  0
 30 53  1  0
 30 54  1  0
M  END
>  <Energy>  (584) 
3.3675412857169382

>  <compound_id>  (584) 
4230

>  <target_id>  (584) 
1

>  <reference_id>  (584) 
148

>  <inspiration_ids>  (584) 
[148, 25]

>  <energy_score>  (584) 
-56.57242501081322

>  <distance_score>  (584) 
0.4597069473768546

>  <path>  (584) 
/opt/xchem-fragalysis-2/maxwin/BulkDock/SCRATCH/505735/C4230-P148/C4230-P148.minimised.mol

>  <scratch_subdir>  (584) 
/opt/xchem-fragalysis-2/maxwin/BulkDock/SCRATCH/505735/C4230-P148

>  <fragmenstein_runtime>  (584) 
2.990504264831543

>  <fragmenstein_outcome>  (584) 
acceptable

>  <fragmenstein_mode>  (584) 
expansion

>  <fragmenstein_error>  (584) 


$$$$
C4230-P25
     RDKit          3D

 54 58  0  0  0  0  0  0  0  0999 V2000
    5.2635   -1.1296   37.4747 C   0  0  0  0  0  0  0  0  0  0  0  0
    4.3587   -1.3746   36.3894 N   0  0  0  0  0  0  0  0  0  0  0  0
    4.2692   -2.5686   35.4028 C   0  0  0  0  0  0  0  0  0  0  0  0
    4.8682   -3.5696   35.3711 O   0  0  0  0  0  0  0  0  0  0  0  0
    3.1286   -2.2352   34.4160 C   0  0  0  0  0  0  0  0  0  0  0  0
    3.1863   -3.1451   33.1757 C   0  0  0  0  0  0  0  0  0  0  0  0
    2.3409   -4.4036   33.3764 C   0  0  0  0  0  0  0  0  0  0  0  0
    0.8237   -4.0885   33.4703 C   0  0  0  0  0  0  0  0  0  0  0  0
    0.2373   -3.8702   32.0359 C   0  0  0  0  0  0  0  0  0  0  0  0
    0.2443   -5.1228   31.1710 C   0  0  0  0  0  0  0  0  0  0  0  0
   -0.3401   -6.2717   31.8958 C   0  0  0  0  0  0  0  0  0  0  0  0
   -0.9100   -7.3316   31.3692 N   0  0  0  0  0  0  0  0  0  0  0  0
   -1.3971   -8.0920   32.3973 N   0  0  0  0  0  0  0  0  0  0  0  0
   -1.1308   -7.4839   33.5302 C   0  0  0  0  0  0  0  0  0  0  0  0
   -1.5085   -7.8852   34.7608 N   0  0  0  0  0  0  0  0  0  0  0  0
   -0.4010   -6.3495   33.2680 N   0  0  0  0  0  0  0  0  0  0  0  0
   -0.0340   -5.2427   34.1533 C   0  0  0  0  0  0  0  0  0  0  0  0
    0.4466   -5.6830   35.8553 S   0  0  0  0  0  0  0  0  0  0  0  0
    1.7129   -6.8464   35.6789 C   0  0  0  0  0  0  0  0  0  0  0  0
    2.1370   -7.3918   34.5568 N   0  0  0  0  0  0  0  0  0  0  0  0
    3.1683   -8.2450   34.9030 N   0  0  0  0  0  0  0  0  0  0  0  0
    3.2787   -8.1889   36.2198 C   0  0  0  0  0  0  0  0  0  0  0  0
    4.1890   -8.9545   37.0016 C   0  0  0  0  0  0  0  0  0  0  0  0
    4.3118   -9.0348   38.3757 C   0  0  0  0  0  0  0  0  0  0  0  0
    5.3551   -9.9479   38.6606 C   0  0  0  0  0  0  0  0  0  0  0  0
    5.8454  -10.3958   37.4545 C   0  0  0  0  0  0  0  0  0  0  0  0
    5.1360   -9.7827   36.4535 N   0  0  0  0  0  0  0  0  0  0  0  0
    2.3780   -7.3208   36.7701 O   0  0  0  0  0  0  0  0  0  0  0  0
    0.6260   -2.7275   34.2289 C   0  0  0  0  0  0  0  0  0  0  0  0
    1.7806   -2.3381   35.1515 C   0  0  0  0  0  0  0  0  0  0  0  0
    5.9721   -0.3577   37.1664 H   0  0  0  0  0  0  0  0  0  0  0  0
    4.6902   -0.7828   38.3368 H   0  0  0  0  0  0  0  0  0  0  0  0
    5.8001   -2.0496   37.7164 H   0  0  0  0  0  0  0  0  0  0  0  0
    3.7482   -0.6294   36.0756 H   0  0  0  0  0  0  0  0  0  0  0  0
    3.2862   -1.2070   34.0647 H   0  0  0  0  0  0  0  0  0  0  0  0
    4.2198   -3.4289   32.9443 H   0  0  0  0  0  0  0  0  0  0  0  0
    2.8265   -2.5905   32.3015 H   0  0  0  0  0  0  0  0  0  0  0  0
    2.7065   -4.8776   34.2879 H   0  0  0  0  0  0  0  0  0  0  0  0
    2.5479   -5.1091   32.5720 H   0  0  0  0  0  0  0  0  0  0  0  0
    0.7748   -3.0749   31.5061 H   0  0  0  0  0  0  0  0  0  0  0  0
   -0.8012   -3.5199   32.1307 H   0  0  0  0  0  0  0  0  0  0  0  0
    1.2590   -5.3565   30.8495 H   0  0  0  0  0  0  0  0  0  0  0  0
   -0.3202   -4.9261   30.2546 H   0  0  0  0  0  0  0  0  0  0  0  0
   -1.7222   -8.8952   34.7994 H   0  0  0  0  0  0  0  0  0  0  0  0
   -0.9393   -7.6329   35.5604 H   0  0  0  0  0  0  0  0  0  0  0  0
   -1.0106   -4.7788   34.3187 H   0  0  0  0  0  0  0  0  0  0  0  0
    3.7105   -8.4976   39.0991 H   0  0  0  0  0  0  0  0  0  0  0  0
    5.7110  -10.2453   39.6392 H   0  0  0  0  0  0  0  0  0  0  0  0
    6.6395  -11.0938   37.2231 H   0  0  0  0  0  0  0  0  0  0  0  0
    5.2855   -9.9140   35.4611 H   0  0  0  0  0  0  0  0  0  0  0  0
    0.5094   -1.9099   33.5041 H   0  0  0  0  0  0  0  0  0  0  0  0
   -0.3080   -2.7344   34.8036 H   0  0  0  0  0  0  0  0  0  0  0  0
    1.8482   -3.0531   35.9792 H   0  0  0  0  0  0  0  0  0  0  0  0
    1.5505   -1.3716   35.6175 H   0  0  0  0  0  0  0  0  0  0  0  0
  1  2  1  0
  2  3  1  0
  3  4  2  0
  3  5  1  0
  5  6  1  0
  6  7  1  0
  7  8  1  0
  8  9  1  0
  9 10  1  0
 10 11  1  0
 11 12  2  0
 12 13  1  0
 13 14  2  0
 14 15  1  0
 14 16  1  0
 16 17  1  0
 17 18  1  0
 18 19  1  0
 19 20  2  0
 20 21  1  0
 21 22  2  0
 22 23  1  0
 23 24  2  0
 24 25  1  0
 25 26  2  0
 26 27  1  0
 22 28  1  0
  8 29  1  0
 29 30  1  0
 30  5  1  0
 17  8  1  0
 28 19  1  0
 16 11  1  0
 27 23  1  0
  1 31  1  0
  1 32  1  0
  1 33  1  0
  2 34  1  0
  5 35  1  0
  6 36  1  0
  6 37  1  0
  7 38  1  0
  7 39  1  0
  9 40  1  0
  9 41  1  0
 10 42  1  0
 10 43  1  0
 15 44  1  0
 15 45  1  0
 17 46  1  0
 24 47  1  0
 25 48  1  0
 26 49  1  0
 27 50  1  0
 29 51  1  0
 29 52  1  0
 30 53  1  0
 30 54  1  0
M  END
>  <Energy>  (585) 
3.1592511236893293

>  <compound_id>  (585) 
4230

>  <target_id>  (585) 
1

>  <reference_id>  (585) 
25

>  <inspiration_ids>  (585) 
[148, 25]

>  <energy_score>  (585) 
-56.78071517284087

>  <distance_score>  (585) 
0.5600347466737697

>  <path>  (585) 
/opt/xchem-fragalysis-2/maxwin/BulkDock/SCRATCH/505735/C4230-P25/C4230-P25.minimised.mol

>  <scratch_subdir>  (585) 
/opt/xchem-fragalysis-2/maxwin/BulkDock/SCRATCH/505735/C4230-P25

>  <fragmenstein_runtime>  (585) 
1.7411117553710938

>  <fragmenstein_outcome>  (585) 
acceptable

>  <fragmenstein_mode>  (585) 
expansion

>  <fragmenstein_error>  (585) 


$$$$
C4231-P148
     RDKit          3D

 42 43  0  0  0  0  0  0  0  0999 V2000
   -0.8205   -7.6929   31.3865 C   0  0  0  0  0  0  0  0  0  0  0  0
   -0.1166   -6.5674   32.1527 C   0  0  0  0  0  0  0  0  0  0  0  0
   -0.7702   -6.4821   33.4440 N   0  0  0  0  0  0  0  0  0  0  0  0
   -0.0879   -5.6822   34.4549 C   0  0  0  0  0  0  0  0  0  0  0  0
    1.0485   -6.4048   35.1409 C   0  0  0  0  0  0  0  0  0  0  0  0
    2.3511   -6.3708   34.6266 C   0  0  0  0  0  0  0  0  0  0  0  0
    3.4003   -7.0162   35.2896 C   0  0  0  0  0  0  0  0  0  0  0  0
    3.1631   -7.6984   36.4773 C   0  0  0  0  0  0  0  0  0  0  0  0
    1.8760   -7.7320   37.0032 C   0  0  0  0  0  0  0  0  0  0  0  0
    0.8244   -7.1053   36.3312 C   0  0  0  0  0  0  0  0  0  0  0  0
   -0.2927   -5.3198   31.3941 N   0  0  0  0  0  0  0  0  0  0  0  0
    0.8556   -4.4328   31.5871 N   0  0  0  0  0  0  0  0  0  0  0  0
    1.0951   -3.5748   30.4018 C   0  0  0  0  0  0  0  0  0  0  0  0
    1.3993   -4.3594   29.1040 C   0  0  0  0  0  0  0  0  0  0  0  0
    2.3096   -5.5540   29.3457 C   0  0  0  0  0  0  0  0  0  0  0  0
    3.3177   -5.5709   28.2186 C   0  0  0  0  0  0  0  0  0  0  0  0
    3.4049   -4.1098   27.8517 C   0  0  0  0  0  0  0  0  0  0  0  0
    2.0473   -3.6203   28.0220 N   0  0  0  0  0  0  0  0  0  0  0  0
   -0.7345   -8.6453   31.9140 H   0  0  0  0  0  0  0  0  0  0  0  0
   -0.3896   -7.8259   30.3881 H   0  0  0  0  0  0  0  0  0  0  0  0
   -1.8890   -7.4942   31.2807 H   0  0  0  0  0  0  0  0  0  0  0  0
    0.9376   -6.8478   32.2313 H   0  0  0  0  0  0  0  0  0  0  0  0
   -0.9115   -7.4131   33.8299 H   0  0  0  0  0  0  0  0  0  0  0  0
    0.2449   -4.7053   34.1008 H   0  0  0  0  0  0  0  0  0  0  0  0
   -0.8361   -5.4353   35.2201 H   0  0  0  0  0  0  0  0  0  0  0  0
    2.5620   -5.8025   33.7225 H   0  0  0  0  0  0  0  0  0  0  0  0
    4.4150   -6.9475   34.9059 H   0  0  0  0  0  0  0  0  0  0  0  0
    3.9801   -8.1793   37.0093 H   0  0  0  0  0  0  0  0  0  0  0  0
    1.6840   -8.2533   37.9400 H   0  0  0  0  0  0  0  0  0  0  0  0
   -0.1724   -7.1431   36.7662 H   0  0  0  0  0  0  0  0  0  0  0  0
   -0.4053   -5.5629   30.4104 H   0  0  0  0  0  0  0  0  0  0  0  0
    0.6616   -3.7984   32.3698 H   0  0  0  0  0  0  0  0  0  0  0  0
    1.9562   -2.9387   30.6418 H   0  0  0  0  0  0  0  0  0  0  0  0
    0.2444   -2.9008   30.2403 H   0  0  0  0  0  0  0  0  0  0  0  0
    0.4354   -4.6949   28.7128 H   0  0  0  0  0  0  0  0  0  0  0  0
    2.8543   -5.4128   30.2802 H   0  0  0  0  0  0  0  0  0  0  0  0
    1.7392   -6.4792   29.4055 H   0  0  0  0  0  0  0  0  0  0  0  0
    4.2828   -5.9737   28.5423 H   0  0  0  0  0  0  0  0  0  0  0  0
    2.9888   -6.1673   27.3665 H   0  0  0  0  0  0  0  0  0  0  0  0
    4.0810   -3.5833   28.5355 H   0  0  0  0  0  0  0  0  0  0  0  0
    3.7665   -3.9631   26.8303 H   0  0  0  0  0  0  0  0  0  0  0  0
    2.0070   -2.6097   28.1533 H   0  0  0  0  0  0  0  0  0  0  0  0
  1  2  1  0
  2  3  1  0
  3  4  1  0
  4  5  1  0
  5  6  2  0
  6  7  1  0
  7  8  2  0
  8  9  1  0
  9 10  2  0
  2 11  1  0
 11 12  1  0
 12 13  1  0
 13 14  1  0
 14 15  1  0
 15 16  1  0
 16 17  1  0
 17 18  1  0
 10  5  1  0
 18 14  1  0
  1 19  1  0
  1 20  1  0
  1 21  1  0
  2 22  1  0
  3 23  1  0
  4 24  1  0
  4 25  1  0
  6 26  1  0
  7 27  1  0
  8 28  1  0
  9 29  1  0
 10 30  1  0
 11 31  1  0
 12 32  1  0
 13 33  1  0
 13 34  1  0
 14 35  1  0
 15 36  1  0
 15 37  1  0
 16 38  1  0
 16 39  1  0
 17 40  1  0
 17 41  1  0
 18 42  1  0
M  END
>  <Energy>  (586) 
47.797383131404487

>  <compound_id>  (586) 
4231

>  <target_id>  (586) 
1

>  <reference_id>  (586) 
148

>  <inspiration_ids>  (586) 
[148, 40]

>  <energy_score>  (586) 
-26.280823003773435

>  <distance_score>  (586) 
1.534527697748089

>  <path>  (586) 
/opt/xchem-fragalysis-2/maxwin/BulkDock/SCRATCH/505735/C4231-P148/C4231-P148.minimised.mol

>  <scratch_subdir>  (586) 
/opt/xchem-fragalysis-2/maxwin/BulkDock/SCRATCH/505735/C4231-P148

>  <fragmenstein_runtime>  (586) 
3.779589891433716

>  <fragmenstein_outcome>  (586) 
too moved

>  <fragmenstein_mode>  (586) 
expansion

>  <fragmenstein_error>  (586) 


$$$$
C4231-P40
     RDKit          3D

 42 43  0  0  0  0  0  0  0  0999 V2000
   -0.7987   -7.6725   31.2115 C   0  0  0  0  0  0  0  0  0  0  0  0
   -0.0713   -6.6806   32.1196 C   0  0  0  0  0  0  0  0  0  0  0  0
   -0.8311   -6.5604   33.3498 N   0  0  0  0  0  0  0  0  0  0  0  0
   -0.1340   -5.8140   34.4008 C   0  0  0  0  0  0  0  0  0  0  0  0
    0.9621   -6.6060   35.0804 C   0  0  0  0  0  0  0  0  0  0  0  0
    2.3120   -6.3030   34.8687 C   0  0  0  0  0  0  0  0  0  0  0  0
    3.3199   -7.0235   35.5189 C   0  0  0  0  0  0  0  0  0  0  0  0
    2.9957   -8.0690   36.3753 C   0  0  0  0  0  0  0  0  0  0  0  0
    1.6592   -8.3848   36.5902 C   0  0  0  0  0  0  0  0  0  0  0  0
    0.6513   -7.6628   35.9447 C   0  0  0  0  0  0  0  0  0  0  0  0
   -0.0060   -5.3743   31.4583 N   0  0  0  0  0  0  0  0  0  0  0  0
    1.3737   -4.9312   31.3570 N   0  0  0  0  0  0  0  0  0  0  0  0
    1.5885   -4.0820   30.1676 C   0  0  0  0  0  0  0  0  0  0  0  0
    1.4416   -4.8367   28.8232 C   0  0  0  0  0  0  0  0  0  0  0  0
    2.2213   -6.1485   28.7713 C   0  0  0  0  0  0  0  0  0  0  0  0
    3.0656   -6.0897   27.5150 C   0  0  0  0  0  0  0  0  0  0  0  0
    3.2135   -4.6076   27.2808 C   0  0  0  0  0  0  0  0  0  0  0  0
    1.8994   -4.0970   27.6424 N   0  0  0  0  0  0  0  0  0  0  0  0
   -0.9179   -8.6450   31.7008 H   0  0  0  0  0  0  0  0  0  0  0  0
   -0.2437   -7.8330   30.2809 H   0  0  0  0  0  0  0  0  0  0  0  0
   -1.7967   -7.3129   30.9487 H   0  0  0  0  0  0  0  0  0  0  0  0
    0.9195   -7.0926   32.3241 H   0  0  0  0  0  0  0  0  0  0  0  0
   -1.0298   -7.4925   33.7100 H   0  0  0  0  0  0  0  0  0  0  0  0
    0.2403   -4.8466   34.0476 H   0  0  0  0  0  0  0  0  0  0  0  0
   -0.8738   -5.5569   35.1701 H   0  0  0  0  0  0  0  0  0  0  0  0
    2.5909   -5.4823   34.2116 H   0  0  0  0  0  0  0  0  0  0  0  0
    4.3625   -6.7508   35.3691 H   0  0  0  0  0  0  0  0  0  0  0  0
    3.7794   -8.6182   36.8910 H   0  0  0  0  0  0  0  0  0  0  0  0
    1.3937   -9.1904   37.2710 H   0  0  0  0  0  0  0  0  0  0  0  0
   -0.3878   -7.9257   36.1337 H   0  0  0  0  0  0  0  0  0  0  0  0
   -0.4947   -5.4102   30.5661 H   0  0  0  0  0  0  0  0  0  0  0  0
    1.6007   -4.3644   32.1819 H   0  0  0  0  0  0  0  0  0  0  0  0
    2.6091   -3.6852   30.2387 H   0  0  0  0  0  0  0  0  0  0  0  0
    0.9160   -3.2150   30.1892 H   0  0  0  0  0  0  0  0  0  0  0  0
    0.3790   -5.0384   28.6821 H   0  0  0  0  0  0  0  0  0  0  0  0
    2.9091   -6.2194   29.6167 H   0  0  0  0  0  0  0  0  0  0  0  0
    1.5592   -7.0179   28.7673 H   0  0  0  0  0  0  0  0  0  0  0  0
    4.0308   -6.5892   27.6449 H   0  0  0  0  0  0  0  0  0  0  0  0
    2.5667   -6.5551   26.6654 H   0  0  0  0  0  0  0  0  0  0  0  0
    3.9846   -4.1814   27.9330 H   0  0  0  0  0  0  0  0  0  0  0  0
    3.4695   -4.3772   26.2431 H   0  0  0  0  0  0  0  0  0  0  0  0
    1.9170   -3.0888   27.8070 H   0  0  0  0  0  0  0  0  0  0  0  0
  1  2  1  0
  2  3  1  0
  3  4  1  0
  4  5  1  0
  5  6  2  0
  6  7  1  0
  7  8  2  0
  8  9  1  0
  9 10  2  0
  2 11  1  0
 11 12  1  0
 12 13  1  0
 13 14  1  0
 14 15  1  0
 15 16  1  0
 16 17  1  0
 17 18  1  0
 10  5  1  0
 18 14  1  0
  1 19  1  0
  1 20  1  0
  1 21  1  0
  2 22  1  0
  3 23  1  0
  4 24  1  0
  4 25  1  0
  6 26  1  0
  7 27  1  0
  8 28  1  0
  9 29  1  0
 10 30  1  0
 11 31  1  0
 12 32  1  0
 13 33  1  0
 13 34  1  0
 14 35  1  0
 15 36  1  0
 15 37  1  0
 16 38  1  0
 16 39  1  0
 17 40  1  0
 17 41  1  0
 18 42  1  0
M  END
>  <Energy>  (587) 
44.754884281135631

>  <compound_id>  (587) 
4231

>  <target_id>  (587) 
1

>  <reference_id>  (587) 
40

>  <inspiration_ids>  (587) 
[148, 40]

>  <energy_score>  (587) 
-29.323321854041012

>  <distance_score>  (587) 
1.4338495054126053

>  <path>  (587) 
/opt/xchem-fragalysis-2/maxwin/BulkDock/SCRATCH/505735/C4231-P40/C4231-P40.minimised.mol

>  <scratch_subdir>  (587) 
/opt/xchem-fragalysis-2/maxwin/BulkDock/SCRATCH/505735/C4231-P40

>  <fragmenstein_runtime>  (587) 
3.7012221813201904

>  <fragmenstein_outcome>  (587) 
too moved

>  <fragmenstein_mode>  (587) 
expansion

>  <fragmenstein_error>  (587) 


$$$$
C4075-P148
     RDKit          3D

 59 64  0  0  0  0  0  0  0  0999 V2000
    0.2564   -3.1249   35.0405 O   0  0  0  0  0  0  0  0  0  0  0  0
    1.0264   -3.5974   34.2905 C   0  0  0  0  0  0  0  0  0  0  0  0
    0.6223   -4.6991   33.3542 C   0  0  0  0  0  0  0  0  0  0  0  0
    0.7978   -4.5194   31.9090 C   0  0  0  0  0  0  0  0  0  0  0  0
    0.3538   -5.4262   31.0199 C   0  0  0  0  0  0  0  0  0  0  0  0
   -0.3383   -6.5712   31.4863 C   0  0  0  0  0  0  0  0  0  0  0  0
   -0.9135   -7.5755   30.8588 N   0  0  0  0  0  0  0  0  0  0  0  0
   -1.5223   -8.3637   31.8001 N   0  0  0  0  0  0  0  0  0  0  0  0
   -1.2811   -7.8353   32.9788 C   0  0  0  0  0  0  0  0  0  0  0  0
   -0.5089   -6.7102   32.8570 N   0  0  0  0  0  0  0  0  0  0  0  0
    0.0030   -5.8152   33.8118 C   0  0  0  0  0  0  0  0  0  0  0  0
   -0.1270   -6.2327   35.5059 S   0  0  0  0  0  0  0  0  0  0  0  0
    1.3812   -7.1084   35.6174 C   0  0  0  0  0  0  0  0  0  0  0  0
    2.0549   -7.5713   34.5811 N   0  0  0  0  0  0  0  0  0  0  0  0
    3.1848   -8.1741   35.0779 N   0  0  0  0  0  0  0  0  0  0  0  0
    3.1391   -8.0453   36.3927 C   0  0  0  0  0  0  0  0  0  0  0  0
    4.1005   -8.6196   37.2725 C   0  0  0  0  0  0  0  0  0  0  0  0
    4.1232   -8.6735   38.6514 C   0  0  0  0  0  0  0  0  0  0  0  0
    5.2546   -9.4378   39.0310 C   0  0  0  0  0  0  0  0  0  0  0  0
    5.8963   -9.8241   37.8760 C   0  0  0  0  0  0  0  0  0  0  0  0
    5.1959   -9.3142   36.8142 N   0  0  0  0  0  0  0  0  0  0  0  0
    2.0129   -7.3750   36.8009 O   0  0  0  0  0  0  0  0  0  0  0  0
    2.4572   -3.2183   33.9906 N   0  0  0  0  0  0  0  0  0  0  0  0
    3.4256   -3.9661   34.8925 C   0  0  0  0  0  0  0  0  0  0  0  0
    3.1313   -3.9975   36.4030 C   0  0  0  0  0  0  0  0  0  0  0  0
    2.7187   -2.6389   36.9114 C   0  0  0  0  0  0  0  0  0  0  0  0
    3.3193   -1.6006   35.9837 C   0  0  0  0  0  0  0  0  0  0  0  0
    2.7466   -0.2131   36.2147 C   0  0  0  0  0  0  0  0  0  0  0  0
    1.3931    0.0695   35.9836 C   0  0  0  0  0  0  0  0  0  0  0  0
    0.8817    1.3518   36.1993 C   0  0  0  0  0  0  0  0  0  0  0  0
    1.7118    2.3794   36.6589 C   0  0  0  0  0  0  0  0  0  0  0  0
    1.1737    3.7684   36.8684 C   0  0  0  0  0  0  0  0  0  0  0  0
    1.4823    4.5952   35.7542 O   0  0  0  0  0  0  0  0  0  0  0  0
    3.0664    2.1061   36.8804 C   0  0  0  0  0  0  0  0  0  0  0  0
    3.5772    0.8234   36.6649 C   0  0  0  0  0  0  0  0  0  0  0  0
    3.2970   -2.0554   34.4880 C   0  0  0  0  0  0  0  0  0  0  0  0
    1.2987   -3.6160   31.5677 H   0  0  0  0  0  0  0  0  0  0  0  0
    0.4776   -5.2811   29.9515 H   0  0  0  0  0  0  0  0  0  0  0  0
   -1.6411   -8.2120   33.9235 H   0  0  0  0  0  0  0  0  0  0  0  0
    3.3865   -8.2410   39.3180 H   0  0  0  0  0  0  0  0  0  0  0  0
    5.5584   -9.6899   40.0396 H   0  0  0  0  0  0  0  0  0  0  0  0
    6.7858  -10.4207   37.7201 H   0  0  0  0  0  0  0  0  0  0  0  0
    5.4249   -9.4569   35.8381 H   0  0  0  0  0  0  0  0  0  0  0  0
    3.2830   -5.0099   34.5730 H   0  0  0  0  0  0  0  0  0  0  0  0
    4.4995   -3.8462   34.6591 H   0  0  0  0  0  0  0  0  0  0  0  0
    4.0300   -4.3465   36.9258 H   0  0  0  0  0  0  0  0  0  0  0  0
    2.3430   -4.7126   36.6439 H   0  0  0  0  0  0  0  0  0  0  0  0
    3.0610   -2.4920   37.9432 H   0  0  0  0  0  0  0  0  0  0  0  0
    1.6280   -2.5680   36.9565 H   0  0  0  0  0  0  0  0  0  0  0  0
    4.3885   -1.5453   36.2404 H   0  0  0  0  0  0  0  0  0  0  0  0
    0.7166   -0.7078   35.6331 H   0  0  0  0  0  0  0  0  0  0  0  0
   -0.1732    1.5383   36.0070 H   0  0  0  0  0  0  0  0  0  0  0  0
    1.6023    4.2181   37.7701 H   0  0  0  0  0  0  0  0  0  0  0  0
    0.0862    3.7529   36.9962 H   0  0  0  0  0  0  0  0  0  0  0  0
    1.7404    4.0127   35.0192 H   0  0  0  0  0  0  0  0  0  0  0  0
    3.7325    2.8955   37.2239 H   0  0  0  0  0  0  0  0  0  0  0  0
    4.6335    0.6453   36.8550 H   0  0  0  0  0  0  0  0  0  0  0  0
    4.3010   -2.0386   34.0259 H   0  0  0  0  0  0  0  0  0  0  0  0
    2.8208   -1.2303   33.9348 H   0  0  0  0  0  0  0  0  0  0  0  0
  1  2  2  0
  2  3  1  0
  3  4  1  0
  4  5  2  0
  5  6  1  0
  6  7  2  0
  7  8  1  0
  8  9  2  0
  9 10  1  0
 10 11  1  0
 11 12  1  0
 12 13  1  0
 13 14  2  0
 14 15  1  0
 15 16  2  0
 16 17  1  0
 17 18  2  0
 18 19  1  0
 19 20  2  0
 20 21  1  0
 16 22  1  0
  2 23  1  0
 23 24  1  0
 24 25  1  0
 25 26  1  0
 26 27  1  0
 27 28  1  0
 28 29  2  0
 29 30  1  0
 30 31  2  0
 31 32  1  0
 32 33  1  0
 31 34  1  0
 34 35  2  0
 27 36  1  0
 11  3  2  0
 22 13  1  0
 36 23  1  0
 10  6  1  0
 21 17  1  0
 35 28  1  0
  4 37  1  0
  5 38  1  0
  9 39  1  0
 18 40  1  0
 19 41  1  0
 20 42  1  0
 21 43  1  0
 24 44  1  0
 24 45  1  0
 25 46  1  0
 25 47  1  0
 26 48  1  0
 26 49  1  0
 27 50  1  0
 29 51  1  0
 30 52  1  0
 32 53  1  0
 32 54  1  0
 33 55  1  0
 34 56  1  0
 35 57  1  0
 36 58  1  0
 36 59  1  0
M  END
>  <Energy>  (588) 
143.94509199631173

>  <compound_id>  (588) 
4075

>  <target_id>  (588) 
1

>  <reference_id>  (588) 
148

>  <inspiration_ids>  (588) 
[148, 41]

>  <energy_score>  (588) 
32.32756695093883

>  <distance_score>  (588) 
0.774701811161241

>  <path>  (588) 
/opt/xchem-fragalysis-2/maxwin/BulkDock/SCRATCH/505735/C4075-P148/C4075-P148.minimised.mol

>  <scratch_subdir>  (588) 
/opt/xchem-fragalysis-2/maxwin/BulkDock/SCRATCH/505735/C4075-P148

>  <fragmenstein_runtime>  (588) 
3.4989490509033203

>  <fragmenstein_outcome>  (588) 
too contorted

>  <fragmenstein_mode>  (588) 
expansion

>  <fragmenstein_error>  (588) 


$$$$
C4075-P41
     RDKit          3D

 59 64  0  0  0  0  0  0  0  0999 V2000
    0.2591   -3.1818   35.1162 O   0  0  0  0  0  0  0  0  0  0  0  0
    1.0185   -3.6360   34.3445 C   0  0  0  0  0  0  0  0  0  0  0  0
    0.6004   -4.6990   33.3712 C   0  0  0  0  0  0  0  0  0  0  0  0
    0.7599   -4.4588   31.9332 C   0  0  0  0  0  0  0  0  0  0  0  0
    0.2949   -5.3210   31.0116 C   0  0  0  0  0  0  0  0  0  0  0  0
   -0.3903   -6.4854   31.4365 C   0  0  0  0  0  0  0  0  0  0  0  0
   -0.9875   -7.4524   30.7736 N   0  0  0  0  0  0  0  0  0  0  0  0
   -1.5521   -8.3018   31.6898 N   0  0  0  0  0  0  0  0  0  0  0  0
   -1.2747   -7.8365   32.8860 C   0  0  0  0  0  0  0  0  0  0  0  0
   -0.5263   -6.6932   32.8025 N   0  0  0  0  0  0  0  0  0  0  0  0
   -0.0140   -5.8327   33.7898 C   0  0  0  0  0  0  0  0  0  0  0  0
   -0.1719   -6.2898   35.4715 S   0  0  0  0  0  0  0  0  0  0  0  0
    1.2875   -7.2413   35.5805 C   0  0  0  0  0  0  0  0  0  0  0  0
    1.9871   -7.6639   34.5451 N   0  0  0  0  0  0  0  0  0  0  0  0
    3.0514   -8.3730   35.0468 N   0  0  0  0  0  0  0  0  0  0  0  0
    2.9571   -8.3225   36.3626 C   0  0  0  0  0  0  0  0  0  0  0  0
    3.8930   -8.9325   37.2441 C   0  0  0  0  0  0  0  0  0  0  0  0
    3.9595   -8.9139   38.6228 C   0  0  0  0  0  0  0  0  0  0  0  0
    5.0805   -9.6900   39.0078 C   0  0  0  0  0  0  0  0  0  0  0  0
    5.6677  -10.1621   37.8556 C   0  0  0  0  0  0  0  0  0  0  0  0
    4.9424   -9.6964   36.7900 N   0  0  0  0  0  0  0  0  0  0  0  0
    1.8537   -7.6145   36.7692 O   0  0  0  0  0  0  0  0  0  0  0  0
    2.4546   -3.2684   34.0541 N   0  0  0  0  0  0  0  0  0  0  0  0
    3.4137   -4.0679   34.9210 C   0  0  0  0  0  0  0  0  0  0  0  0
    3.1263   -4.1548   36.4307 C   0  0  0  0  0  0  0  0  0  0  0  0
    2.7325   -2.8115   36.9932 C   0  0  0  0  0  0  0  0  0  0  0  0
    3.3453   -1.7445   36.1064 C   0  0  0  0  0  0  0  0  0  0  0  0
    2.7913   -0.3604   36.3952 C   0  0  0  0  0  0  0  0  0  0  0  0
    1.4439   -0.0475   36.1683 C   0  0  0  0  0  0  0  0  0  0  0  0
    0.9495    1.2313   36.4384 C   0  0  0  0  0  0  0  0  0  0  0  0
    1.7911    2.2245   36.9494 C   0  0  0  0  0  0  0  0  0  0  0  0
    1.2723    3.6105   37.2196 C   0  0  0  0  0  0  0  0  0  0  0  0
    1.6366    4.4918   36.1656 O   0  0  0  0  0  0  0  0  0  0  0  0
    3.1397    1.9209   37.1684 C   0  0  0  0  0  0  0  0  0  0  0  0
    3.6334    0.6419   36.8983 C   0  0  0  0  0  0  0  0  0  0  0  0
    3.3150   -2.1405   34.5946 C   0  0  0  0  0  0  0  0  0  0  0  0
    1.2570   -3.5417   31.6245 H   0  0  0  0  0  0  0  0  0  0  0  0
    0.3974   -5.1256   29.9493 H   0  0  0  0  0  0  0  0  0  0  0  0
   -1.6026   -8.2629   33.8192 H   0  0  0  0  0  0  0  0  0  0  0  0
    3.2728   -8.4027   39.2865 H   0  0  0  0  0  0  0  0  0  0  0  0
    5.4190   -9.8885   40.0174 H   0  0  0  0  0  0  0  0  0  0  0  0
    6.5341  -10.7931   37.7034 H   0  0  0  0  0  0  0  0  0  0  0  0
    5.1378   -9.8950   35.8160 H   0  0  0  0  0  0  0  0  0  0  0  0
    3.2508   -5.0963   34.5623 H   0  0  0  0  0  0  0  0  0  0  0  0
    4.4884   -3.9578   34.6864 H   0  0  0  0  0  0  0  0  0  0  0  0
    4.0241   -4.5329   36.9343 H   0  0  0  0  0  0  0  0  0  0  0  0
    2.3329   -4.8728   36.6473 H   0  0  0  0  0  0  0  0  0  0  0  0
    1.6430   -2.7277   37.0439 H   0  0  0  0  0  0  0  0  0  0  0  0
    3.0786   -2.7104   38.0292 H   0  0  0  0  0  0  0  0  0  0  0  0
    4.4157   -1.7135   36.3626 H   0  0  0  0  0  0  0  0  0  0  0  0
    0.7584   -0.7979   35.7787 H   0  0  0  0  0  0  0  0  0  0  0  0
   -0.1012    1.4415   36.2477 H   0  0  0  0  0  0  0  0  0  0  0  0
    1.6774    3.9988   38.1599 H   0  0  0  0  0  0  0  0  0  0  0  0
    0.1809    3.6115   37.3080 H   0  0  0  0  0  0  0  0  0  0  0  0
    1.8798    3.9456   35.3984 H   0  0  0  0  0  0  0  0  0  0  0  0
    3.8142    2.6841   37.5524 H   0  0  0  0  0  0  0  0  0  0  0  0
    4.6854    0.4397   37.0878 H   0  0  0  0  0  0  0  0  0  0  0  0
    4.3189   -2.1227   34.1323 H   0  0  0  0  0  0  0  0  0  0  0  0
    2.8531   -1.2864   34.0743 H   0  0  0  0  0  0  0  0  0  0  0  0
  1  2  2  0
  2  3  1  0
  3  4  1  0
  4  5  2  0
  5  6  1  0
  6  7  2  0
  7  8  1  0
  8  9  2  0
  9 10  1  0
 10 11  1  0
 11 12  1  0
 12 13  1  0
 13 14  2  0
 14 15  1  0
 15 16  2  0
 16 17  1  0
 17 18  2  0
 18 19  1  0
 19 20  2  0
 20 21  1  0
 16 22  1  0
  2 23  1  0
 23 24  1  0
 24 25  1  0
 25 26  1  0
 26 27  1  0
 27 28  1  0
 28 29  2  0
 29 30  1  0
 30 31  2  0
 31 32  1  0
 32 33  1  0
 31 34  1  0
 34 35  2  0
 27 36  1  0
 11  3  2  0
 22 13  1  0
 36 23  1  0
 10  6  1  0
 21 17  1  0
 35 28  1  0
  4 37  1  0
  5 38  1  0
  9 39  1  0
 18 40  1  0
 19 41  1  0
 20 42  1  0
 21 43  1  0
 24 44  1  0
 24 45  1  0
 25 46  1  0
 25 47  1  0
 26 48  1  0
 26 49  1  0
 27 50  1  0
 29 51  1  0
 30 52  1  0
 32 53  1  0
 32 54  1  0
 33 55  1  0
 34 56  1  0
 35 57  1  0
 36 58  1  0
 36 59  1  0
M  END
>  <Energy>  (589) 
142.95065838061893

>  <compound_id>  (589) 
4075

>  <target_id>  (589) 
1

>  <reference_id>  (589) 
41

>  <inspiration_ids>  (589) 
[148, 41]

>  <energy_score>  (589) 
31.333133335246913

>  <distance_score>  (589) 
0.7634407156412263

>  <path>  (589) 
/opt/xchem-fragalysis-2/maxwin/BulkDock/SCRATCH/505735/C4075-P41/C4075-P41.minimised.mol

>  <scratch_subdir>  (589) 
/opt/xchem-fragalysis-2/maxwin/BulkDock/SCRATCH/505735/C4075-P41

>  <fragmenstein_runtime>  (589) 
2.793879508972168

>  <fragmenstein_outcome>  (589) 
too contorted

>  <fragmenstein_mode>  (589) 
expansion

>  <fragmenstein_error>  (589) 


$$$$
C4075-P148
     RDKit          3D

 59 64  0  0  0  0  0  0  0  0999 V2000
    1.9547   -3.9262   34.7985 O   0  0  0  0  0  0  0  0  0  0  0  0
    0.9815   -3.6303   34.1589 C   0  0  0  0  0  0  0  0  0  0  0  0
    0.4532   -4.6197   33.1704 C   0  0  0  0  0  0  0  0  0  0  0  0
    0.6446   -4.3585   31.7439 C   0  0  0  0  0  0  0  0  0  0  0  0
    0.3037   -5.2629   30.8083 C   0  0  0  0  0  0  0  0  0  0  0  0
   -0.3011   -6.4815   31.2094 C   0  0  0  0  0  0  0  0  0  0  0  0
   -0.7704   -7.5051   30.5264 N   0  0  0  0  0  0  0  0  0  0  0  0
   -1.3641   -8.3664   31.4128 N   0  0  0  0  0  0  0  0  0  0  0  0
   -1.2077   -7.8663   32.6174 C   0  0  0  0  0  0  0  0  0  0  0  0
   -0.5190   -6.6819   32.5659 N   0  0  0  0  0  0  0  0  0  0  0  0
   -0.1069   -5.7893   33.5698 C   0  0  0  0  0  0  0  0  0  0  0  0
   -0.3306   -6.2507   35.2428 S   0  0  0  0  0  0  0  0  0  0  0  0
    1.2127   -7.0300   35.4740 C   0  0  0  0  0  0  0  0  0  0  0  0
    1.9611   -7.5081   34.4992 N   0  0  0  0  0  0  0  0  0  0  0  0
    3.0622   -8.0777   35.0926 N   0  0  0  0  0  0  0  0  0  0  0  0
    2.9160   -7.9210   36.3979 C   0  0  0  0  0  0  0  0  0  0  0  0
    3.8329   -8.4301   37.3609 C   0  0  0  0  0  0  0  0  0  0  0  0
    3.6500   -8.7350   38.6947 C   0  0  0  0  0  0  0  0  0  0  0  0
    4.8752   -9.2507   39.1860 C   0  0  0  0  0  0  0  0  0  0  0  0
    5.7751   -9.2345   38.1440 C   0  0  0  0  0  0  0  0  0  0  0  0
    5.1355   -8.7279   37.0424 N   0  0  0  0  0  0  0  0  0  0  0  0
    1.7399   -7.2857   36.7087 O   0  0  0  0  0  0  0  0  0  0  0  0
    0.1645   -2.4545   34.1932 N   0  0  0  0  0  0  0  0  0  0  0  0
   -0.9879   -2.6476   35.1817 C   0  0  0  0  0  0  0  0  0  0  0  0
   -1.8804   -1.6267   35.9116 C   0  0  0  0  0  0  0  0  0  0  0  0
   -1.0482   -1.0168   37.0256 C   0  0  0  0  0  0  0  0  0  0  0  0
    0.3928   -0.9711   36.5230 C   0  0  0  0  0  0  0  0  0  0  0  0
    1.4328   -1.8772   37.1539 C   0  0  0  0  0  0  0  0  0  0  0  0
    1.1368   -3.0759   37.8153 C   0  0  0  0  0  0  0  0  0  0  0  0
    2.1497   -3.9991   38.0854 C   0  0  0  0  0  0  0  0  0  0  0  0
    3.4738   -3.7197   37.7307 C   0  0  0  0  0  0  0  0  0  0  0  0
    4.5260   -4.7884   37.7582 C   0  0  0  0  0  0  0  0  0  0  0  0
    4.6951   -5.3272   36.4485 O   0  0  0  0  0  0  0  0  0  0  0  0
    3.7917   -2.4675   37.2024 C   0  0  0  0  0  0  0  0  0  0  0  0
    2.7816   -1.5554   36.9233 C   0  0  0  0  0  0  0  0  0  0  0  0
    0.3295   -1.1605   34.9621 C   0  0  0  0  0  0  0  0  0  0  0  0
    1.0947   -3.4099   31.4595 H   0  0  0  0  0  0  0  0  0  0  0  0
    0.4515   -5.0683   29.7508 H   0  0  0  0  0  0  0  0  0  0  0  0
   -1.5710   -8.3061   33.5332 H   0  0  0  0  0  0  0  0  0  0  0  0
    2.7261   -8.6286   39.2507 H   0  0  0  0  0  0  0  0  0  0  0  0
    5.0752   -9.6003   40.1912 H   0  0  0  0  0  0  0  0  0  0  0  0
    6.8132   -9.5353   38.0918 H   0  0  0  0  0  0  0  0  0  0  0  0
    5.5540   -8.5757   36.1328 H   0  0  0  0  0  0  0  0  0  0  0  0
   -0.6936   -3.4182   35.9043 H   0  0  0  0  0  0  0  0  0  0  0  0
   -1.6967   -3.1821   34.5379 H   0  0  0  0  0  0  0  0  0  0  0  0
   -2.7539   -2.1276   36.3444 H   0  0  0  0  0  0  0  0  0  0  0  0
   -2.2680   -0.8660   35.2236 H   0  0  0  0  0  0  0  0  0  0  0  0
   -1.1594   -1.5724   37.9613 H   0  0  0  0  0  0  0  0  0  0  0  0
   -1.4194   -0.0043   37.2265 H   0  0  0  0  0  0  0  0  0  0  0  0
    0.7361    0.0569   36.7133 H   0  0  0  0  0  0  0  0  0  0  0  0
    0.1165   -3.3616   38.0514 H   0  0  0  0  0  0  0  0  0  0  0  0
    1.8892   -4.9657   38.5110 H   0  0  0  0  0  0  0  0  0  0  0  0
    5.4853   -4.3830   38.0963 H   0  0  0  0  0  0  0  0  0  0  0  0
    4.2521   -5.5973   38.4416 H   0  0  0  0  0  0  0  0  0  0  0  0
    4.0275   -4.9017   35.8731 H   0  0  0  0  0  0  0  0  0  0  0  0
    4.8166   -2.2318   36.9245 H   0  0  0  0  0  0  0  0  0  0  0  0
    3.0512   -0.6216   36.4335 H   0  0  0  0  0  0  0  0  0  0  0  0
   -0.3125   -0.4001   34.4858 H   0  0  0  0  0  0  0  0  0  0  0  0
    1.3272   -0.8497   34.6124 H   0  0  0  0  0  0  0  0  0  0  0  0
  1  2  2  0
  2  3  1  0
  3  4  1  0
  4  5  2  0
  5  6  1  0
  6  7  2  0
  7  8  1  0
  8  9  2  0
  9 10  1  0
 10 11  1  0
 11 12  1  0
 12 13  1  0
 13 14  2  0
 14 15  1  0
 15 16  2  0
 16 17  1  0
 17 18  2  0
 18 19  1  0
 19 20  2  0
 20 21  1  0
 16 22  1  0
  2 23  1  0
 23 24  1  0
 24 25  1  0
 25 26  1  0
 26 27  1  0
 27 28  1  0
 28 29  2  0
 29 30  1  0
 30 31  2  0
 31 32  1  0
 32 33  1  0
 31 34  1  0
 34 35  2  0
 27 36  1  0
 11  3  2  0
 22 13  1  0
 36 23  1  0
 10  6  1  0
 21 17  1  0
 35 28  1  0
  4 37  1  0
  5 38  1  0
  9 39  1  0
 18 40  1  0
 19 41  1  0
 20 42  1  0
 21 43  1  0
 24 44  1  0
 24 45  1  0
 25 46  1  0
 25 47  1  0
 26 48  1  0
 26 49  1  0
 27 50  1  0
 29 51  1  0
 30 52  1  0
 32 53  1  0
 32 54  1  0
 33 55  1  0
 34 56  1  0
 35 57  1  0
 36 58  1  0
 36 59  1  0
M  END
>  <Energy>  (590) 
147.35956975823734

>  <compound_id>  (590) 
4075

>  <target_id>  (590) 
1

>  <reference_id>  (590) 
148

>  <inspiration_ids>  (590) 
[148, 56]

>  <energy_score>  (590) 
29.040934614927153

>  <distance_score>  (590) 
1.708407602578831

>  <path>  (590) 
/opt/xchem-fragalysis-2/maxwin/BulkDock/SCRATCH/505735/C4075-P148/C4075-P148.minimised.mol

>  <scratch_subdir>  (590) 
/opt/xchem-fragalysis-2/maxwin/BulkDock/SCRATCH/505735/C4075-P148

>  <fragmenstein_runtime>  (590) 
5.487348318099976

>  <fragmenstein_outcome>  (590) 
too moved

>  <fragmenstein_mode>  (590) 
expansion

>  <fragmenstein_error>  (590) 


$$$$
C4075-P56
     RDKit          3D

 59 64  0  0  0  0  0  0  0  0999 V2000
    1.9777   -2.9246   33.5119 O   0  0  0  0  0  0  0  0  0  0  0  0
    0.9840   -2.9222   32.8396 C   0  0  0  0  0  0  0  0  0  0  0  0
    0.5618   -4.1969   32.1808 C   0  0  0  0  0  0  0  0  0  0  0  0
    0.4976   -4.3109   30.7298 C   0  0  0  0  0  0  0  0  0  0  0  0
    0.0042   -5.4148   30.1393 C   0  0  0  0  0  0  0  0  0  0  0  0
   -0.4961   -6.4761   30.9406 C   0  0  0  0  0  0  0  0  0  0  0  0
   -1.1688   -7.5684   30.6417 N   0  0  0  0  0  0  0  0  0  0  0  0
   -1.4611   -8.2190   31.8154 N   0  0  0  0  0  0  0  0  0  0  0  0
   -0.9557   -7.5089   32.8002 C   0  0  0  0  0  0  0  0  0  0  0  0
   -0.3641   -6.3663   32.3188 N   0  0  0  0  0  0  0  0  0  0  0  0
    0.1780   -5.2393   32.9614 C   0  0  0  0  0  0  0  0  0  0  0  0
    0.1714   -5.1669   34.7035 S   0  0  0  0  0  0  0  0  0  0  0  0
    1.6465   -6.0278   34.9595 C   0  0  0  0  0  0  0  0  0  0  0  0
    1.6141   -7.2254   35.4996 N   0  0  0  0  0  0  0  0  0  0  0  0
    2.9151   -7.6279   35.6119 N   0  0  0  0  0  0  0  0  0  0  0  0
    3.6792   -6.6500   35.1587 C   0  0  0  0  0  0  0  0  0  0  0  0
    5.0973   -6.7653   35.1898 C   0  0  0  0  0  0  0  0  0  0  0  0
    6.1018   -5.8865   34.8562 C   0  0  0  0  0  0  0  0  0  0  0  0
    7.3368   -6.5249   35.1472 C   0  0  0  0  0  0  0  0  0  0  0  0
    7.0547   -7.7769   35.6465 C   0  0  0  0  0  0  0  0  0  0  0  0
    5.6938   -7.9070   35.6752 N   0  0  0  0  0  0  0  0  0  0  0  0
    2.9245   -5.5811   34.7314 O   0  0  0  0  0  0  0  0  0  0  0  0
    0.0200   -1.8925   32.6073 N   0  0  0  0  0  0  0  0  0  0  0  0
   -1.1093   -1.9929   33.6335 C   0  0  0  0  0  0  0  0  0  0  0  0
   -2.2168   -0.9745   33.9666 C   0  0  0  0  0  0  0  0  0  0  0  0
   -1.5958    0.1196   34.8183 C   0  0  0  0  0  0  0  0  0  0  0  0
   -0.0960    0.1144   34.5118 C   0  0  0  0  0  0  0  0  0  0  0  0
    0.8495   -0.5427   35.5094 C   0  0  0  0  0  0  0  0  0  0  0  0
    0.4367   -1.3532   36.5787 C   0  0  0  0  0  0  0  0  0  0  0  0
    1.3711   -1.9653   37.4201 C   0  0  0  0  0  0  0  0  0  0  0  0
    2.7403   -1.7642   37.2257 C   0  0  0  0  0  0  0  0  0  0  0  0
    3.7492   -2.3547   38.1629 C   0  0  0  0  0  0  0  0  0  0  0  0
    4.8320   -2.9334   37.4491 O   0  0  0  0  0  0  0  0  0  0  0  0
    3.1588   -0.9389   36.1812 C   0  0  0  0  0  0  0  0  0  0  0  0
    2.2272   -0.3378   35.3377 C   0  0  0  0  0  0  0  0  0  0  0  0
    0.0032   -0.4442   33.0410 C   0  0  0  0  0  0  0  0  0  0  0  0
    0.8614   -3.4755   30.1369 H   0  0  0  0  0  0  0  0  0  0  0  0
   -0.0592   -5.5023   29.0601 H   0  0  0  0  0  0  0  0  0  0  0  0
   -1.0128   -7.7578   33.8495 H   0  0  0  0  0  0  0  0  0  0  0  0
    5.9622   -4.8840   34.4704 H   0  0  0  0  0  0  0  0  0  0  0  0
    8.3255   -6.1037   35.0164 H   0  0  0  0  0  0  0  0  0  0  0  0
    7.7010   -8.5683   36.0006 H   0  0  0  0  0  0  0  0  0  0  0  0
    5.1790   -8.7005   36.0322 H   0  0  0  0  0  0  0  0  0  0  0  0
   -0.7269   -2.4445   34.5540 H   0  0  0  0  0  0  0  0  0  0  0  0
   -1.6852   -2.8232   33.1974 H   0  0  0  0  0  0  0  0  0  0  0  0
   -3.0231   -1.4607   34.5282 H   0  0  0  0  0  0  0  0  0  0  0  0
   -2.6684   -0.5707   33.0525 H   0  0  0  0  0  0  0  0  0  0  0  0
   -1.8259   -0.0030   35.8801 H   0  0  0  0  0  0  0  0  0  0  0  0
   -2.0394    1.0790   34.5230 H   0  0  0  0  0  0  0  0  0  0  0  0
    0.2016    1.1733   34.4842 H   0  0  0  0  0  0  0  0  0  0  0  0
   -0.6134   -1.5498   36.7713 H   0  0  0  0  0  0  0  0  0  0  0  0
    1.0203   -2.5973   38.2327 H   0  0  0  0  0  0  0  0  0  0  0  0
    3.3030   -3.1142   38.8122 H   0  0  0  0  0  0  0  0  0  0  0  0
    4.1490   -1.5651   38.8081 H   0  0  0  0  0  0  0  0  0  0  0  0
    4.4538   -3.7384   37.0308 H   0  0  0  0  0  0  0  0  0  0  0  0
    4.2206   -0.7696   36.0133 H   0  0  0  0  0  0  0  0  0  0  0  0
    2.5971    0.2802   34.5224 H   0  0  0  0  0  0  0  0  0  0  0  0
    0.9970   -0.1164   32.6969 H   0  0  0  0  0  0  0  0  0  0  0  0
   -0.6683    0.1003   32.3559 H   0  0  0  0  0  0  0  0  0  0  0  0
  1  2  2  0
  2  3  1  0
  3  4  1  0
  4  5  2  0
  5  6  1  0
  6  7  2  0
  7  8  1  0
  8  9  2  0
  9 10  1  0
 10 11  1  0
 11 12  1  0
 12 13  1  0
 13 14  2  0
 14 15  1  0
 15 16  2  0
 16 17  1  0
 17 18  2  0
 18 19  1  0
 19 20  2  0
 20 21  1  0
 16 22  1  0
  2 23  1  0
 23 24  1  0
 24 25  1  0
 25 26  1  0
 26 27  1  0
 27 28  1  0
 28 29  2  0
 29 30  1  0
 30 31  2  0
 31 32  1  0
 32 33  1  0
 31 34  1  0
 34 35  2  0
 27 36  1  0
 11  3  2  0
 22 13  1  0
 36 23  1  0
 10  6  1  0
 21 17  1  0
 35 28  1  0
  4 37  1  0
  5 38  1  0
  9 39  1  0
 18 40  1  0
 19 41  1  0
 20 42  1  0
 21 43  1  0
 24 44  1  0
 24 45  1  0
 25 46  1  0
 25 47  1  0
 26 48  1  0
 26 49  1  0
 27 50  1  0
 29 51  1  0
 30 52  1  0
 32 53  1  0
 32 54  1  0
 33 55  1  0
 34 56  1  0
 35 57  1  0
 36 58  1  0
 36 59  1  0
M  END
>  <Energy>  (591) 
152.40398849156614

>  <compound_id>  (591) 
4075

>  <target_id>  (591) 
1

>  <reference_id>  (591) 
56

>  <inspiration_ids>  (591) 
[148, 56]

>  <energy_score>  (591) 
34.08535334825629

>  <distance_score>  (591) 
2.922509090290738

>  <path>  (591) 
/opt/xchem-fragalysis-2/maxwin/BulkDock/SCRATCH/505735/C4075-P56/C4075-P56.minimised.mol

>  <scratch_subdir>  (591) 
/opt/xchem-fragalysis-2/maxwin/BulkDock/SCRATCH/505735/C4075-P56

>  <fragmenstein_runtime>  (591) 
6.747975826263428

>  <fragmenstein_outcome>  (591) 
too moved

>  <fragmenstein_mode>  (591) 
expansion

>  <fragmenstein_error>  (591) 


$$$$
C4232-P148
     RDKit          3D

 49 54  0  0  0  0  0  0  0  0999 V2000
    3.4745    0.5463   27.0150 C   0  0  0  0  0  0  0  0  0  0  0  0
    2.6726    1.6388   27.3360 C   0  0  0  0  0  0  0  0  0  0  0  0
    1.5345    1.4590   28.1251 C   0  0  0  0  0  0  0  0  0  0  0  0
    1.1780    0.1850   28.5920 C   0  0  0  0  0  0  0  0  0  0  0  0
    0.0794    0.0546   29.5383 C   0  0  0  0  0  0  0  0  0  0  0  0
   -0.2295    0.9312   30.4735 N   0  0  0  0  0  0  0  0  0  0  0  0
   -1.1395    0.3650   31.3214 N   0  0  0  0  0  0  0  0  0  0  0  0
   -1.4070   -0.8361   30.8678 C   0  0  0  0  0  0  0  0  0  0  0  0
   -2.1667   -1.8735   31.5877 C   0  0  0  0  0  0  0  0  0  0  0  0
   -1.3710   -2.4774   32.6388 N   0  0  0  0  0  0  0  0  0  0  0  0
   -0.8249   -3.7426   32.6999 C   0  0  0  0  0  0  0  0  0  0  0  0
   -0.3823   -4.1839   34.0274 C   0  0  0  0  0  0  0  0  0  0  0  0
   -0.2832   -5.4978   34.3122 C   0  0  0  0  0  0  0  0  0  0  0  0
   -0.0107   -6.0090   35.9433 S   0  0  0  0  0  0  0  0  0  0  0  0
    1.4869   -6.8803   35.7817 C   0  0  0  0  0  0  0  0  0  0  0  0
    1.9965   -7.3661   34.6655 N   0  0  0  0  0  0  0  0  0  0  0  0
    3.1249   -8.0774   35.0246 N   0  0  0  0  0  0  0  0  0  0  0  0
    3.2405   -7.9702   36.3375 C   0  0  0  0  0  0  0  0  0  0  0  0
    4.2271   -8.6371   37.1191 C   0  0  0  0  0  0  0  0  0  0  0  0
    4.3354   -8.7449   38.4919 C   0  0  0  0  0  0  0  0  0  0  0  0
    5.4404   -9.5854   38.7705 C   0  0  0  0  0  0  0  0  0  0  0  0
    5.9836   -9.9603   37.5624 C   0  0  0  0  0  0  0  0  0  0  0  0
    5.2493   -9.3703   36.5658 N   0  0  0  0  0  0  0  0  0  0  0  0
    2.2313   -7.2190   36.8763 O   0  0  0  0  0  0  0  0  0  0  0  0
   -0.5446   -6.3955   33.2759 N   0  0  0  0  0  0  0  0  0  0  0  0
   -0.8392   -7.7284   33.2666 C   0  0  0  0  0  0  0  0  0  0  0  0
   -1.0278   -8.1557   32.0385 N   0  0  0  0  0  0  0  0  0  0  0  0
   -0.8786   -7.0794   31.2010 N   0  0  0  0  0  0  0  0  0  0  0  0
   -0.6668   -6.0157   31.9506 C   0  0  0  0  0  0  0  0  0  0  0  0
   -0.7572   -4.6223   31.6731 C   0  0  0  0  0  0  0  0  0  0  0  0
   -0.7399   -1.0355   29.6884 N   0  0  0  0  0  0  0  0  0  0  0  0
    1.9909   -0.9067   28.2592 C   0  0  0  0  0  0  0  0  0  0  0  0
    3.1381   -0.7230   27.4812 C   0  0  0  0  0  0  0  0  0  0  0  0
    4.3529    0.6795   26.3887 H   0  0  0  0  0  0  0  0  0  0  0  0
    2.9334    2.6319   26.9794 H   0  0  0  0  0  0  0  0  0  0  0  0
    0.9343    2.3266   28.3988 H   0  0  0  0  0  0  0  0  0  0  0  0
   -2.5456   -2.6273   30.8931 H   0  0  0  0  0  0  0  0  0  0  0  0
   -3.0483   -1.4138   32.0489 H   0  0  0  0  0  0  0  0  0  0  0  0
   -1.2049   -1.8628   33.4335 H   0  0  0  0  0  0  0  0  0  0  0  0
   -0.2398   -3.4234   34.7903 H   0  0  0  0  0  0  0  0  0  0  0  0
    3.6710   -8.2944   39.2197 H   0  0  0  0  0  0  0  0  0  0  0  0
    5.7945   -9.8913   39.7472 H   0  0  0  0  0  0  0  0  0  0  0  0
    6.8272  -10.5963   37.3268 H   0  0  0  0  0  0  0  0  0  0  0  0
    5.4132   -9.4809   35.5724 H   0  0  0  0  0  0  0  0  0  0  0  0
   -0.9153   -8.3132   34.1678 H   0  0  0  0  0  0  0  0  0  0  0  0
   -1.0024   -4.3314   30.6606 H   0  0  0  0  0  0  0  0  0  0  0  0
   -0.7345   -1.8646   29.1123 H   0  0  0  0  0  0  0  0  0  0  0  0
    1.7711   -1.9025   28.6316 H   0  0  0  0  0  0  0  0  0  0  0  0
    3.7709   -1.5708   27.2327 H   0  0  0  0  0  0  0  0  0  0  0  0
  1  2  2  0
  2  3  1  0
  3  4  2  0
  4  5  1  0
  5  6  2  0
  6  7  1  0
  7  8  2  0
  8  9  1  0
  9 10  1  0
 10 11  1  0
 11 12  1  0
 12 13  2  0
 13 14  1  0
 14 15  1  0
 15 16  2  0
 16 17  1  0
 17 18  2  0
 18 19  1  0
 19 20  2  0
 20 21  1  0
 21 22  2  0
 22 23  1  0
 18 24  1  0
 13 25  1  0
 25 26  1  0
 26 27  2  0
 27 28  1  0
 28 29  2  0
 29 30  1  0
  8 31  1  0
  4 32  1  0
 32 33  2  0
 33  1  1  0
 31  5  1  0
 30 11  2  0
 24 15  1  0
 29 25  1  0
 23 19  1  0
  1 34  1  0
  2 35  1  0
  3 36  1  0
  9 37  1  0
  9 38  1  0
 10 39  1  0
 12 40  1  0
 20 41  1  0
 21 42  1  0
 22 43  1  0
 23 44  1  0
 26 45  1  0
 30 46  1  0
 31 47  1  0
 32 48  1  0
 33 49  1  0
M  END
>  <Energy>  (592) 
47.919949360103949

>  <compound_id>  (592) 
4232

>  <target_id>  (592) 
1

>  <reference_id>  (592) 
148

>  <inspiration_ids>  (592) 
[148, 59]

>  <energy_score>  (592) 
-35.79762375712899

>  <distance_score>  (592) 
1.2155738782599705

>  <path>  (592) 
/opt/xchem-fragalysis-2/maxwin/BulkDock/SCRATCH/505735/C4232-P148/C4232-P148.minimised.mol

>  <scratch_subdir>  (592) 
/opt/xchem-fragalysis-2/maxwin/BulkDock/SCRATCH/505735/C4232-P148

>  <fragmenstein_runtime>  (592) 
3.0871942043304443

>  <fragmenstein_outcome>  (592) 
too moved

>  <fragmenstein_mode>  (592) 
expansion

>  <fragmenstein_error>  (592) 


$$$$
C4232-P59
     RDKit          3D

 49 54  0  0  0  0  0  0  0  0999 V2000
    3.2207    0.8237   26.8238 C   0  0  0  0  0  0  0  0  0  0  0  0
    2.3593    1.8653   27.1595 C   0  0  0  0  0  0  0  0  0  0  0  0
    1.2682    1.6240   27.9967 C   0  0  0  0  0  0  0  0  0  0  0  0
    1.0173    0.3374   28.4955 C   0  0  0  0  0  0  0  0  0  0  0  0
   -0.0220    0.1523   29.4970 C   0  0  0  0  0  0  0  0  0  0  0  0
   -0.2860    0.9871   30.4834 N   0  0  0  0  0  0  0  0  0  0  0  0
   -1.1619    0.3860   31.3420 N   0  0  0  0  0  0  0  0  0  0  0  0
   -1.4568   -0.7928   30.8460 C   0  0  0  0  0  0  0  0  0  0  0  0
   -2.2254   -1.8454   31.5354 C   0  0  0  0  0  0  0  0  0  0  0  0
   -1.4511   -2.4653   32.5952 N   0  0  0  0  0  0  0  0  0  0  0  0
   -0.8521   -3.7094   32.6222 C   0  0  0  0  0  0  0  0  0  0  0  0
   -0.4154   -4.1877   33.9396 C   0  0  0  0  0  0  0  0  0  0  0  0
   -0.2580   -5.5070   34.1769 C   0  0  0  0  0  0  0  0  0  0  0  0
   -0.0231   -6.0521   35.8062 S   0  0  0  0  0  0  0  0  0  0  0  0
    1.4289   -7.0005   35.6782 C   0  0  0  0  0  0  0  0  0  0  0  0
    1.9973   -7.4317   34.5690 N   0  0  0  0  0  0  0  0  0  0  0  0
    3.0500   -8.2388   34.9520 N   0  0  0  0  0  0  0  0  0  0  0  0
    3.0778   -8.2280   36.2721 C   0  0  0  0  0  0  0  0  0  0  0  0
    4.0132   -8.9507   37.0656 C   0  0  0  0  0  0  0  0  0  0  0  0
    4.1307   -9.0271   38.4398 C   0  0  0  0  0  0  0  0  0  0  0  0
    5.2131   -9.8926   38.7306 C   0  0  0  0  0  0  0  0  0  0  0  0
    5.7286  -10.3202   37.5279 C   0  0  0  0  0  0  0  0  0  0  0  0
    4.9980   -9.7403   36.5226 N   0  0  0  0  0  0  0  0  0  0  0  0
    2.0739   -7.4583   36.7951 O   0  0  0  0  0  0  0  0  0  0  0  0
   -0.4673   -6.3749   33.1009 N   0  0  0  0  0  0  0  0  0  0  0  0
   -0.6763   -7.7220   33.0311 C   0  0  0  0  0  0  0  0  0  0  0  0
   -0.9002   -8.0983   31.7930 N   0  0  0  0  0  0  0  0  0  0  0  0
   -0.8342   -6.9784   31.0027 N   0  0  0  0  0  0  0  0  0  0  0  0
   -0.6202   -5.9458   31.7924 C   0  0  0  0  0  0  0  0  0  0  0  0
   -0.7379   -4.5467   31.5657 C   0  0  0  0  0  0  0  0  0  0  0  0
   -0.8263   -0.9497   29.6404 N   0  0  0  0  0  0  0  0  0  0  0  0
    1.8823   -0.7056   28.1405 C   0  0  0  0  0  0  0  0  0  0  0  0
    2.9851   -0.4584   27.3173 C   0  0  0  0  0  0  0  0  0  0  0  0
    4.0734    1.0108   26.1753 H   0  0  0  0  0  0  0  0  0  0  0  0
    2.5431    2.8697   26.7865 H   0  0  0  0  0  0  0  0  0  0  0  0
    0.6261    2.4554   28.2873 H   0  0  0  0  0  0  0  0  0  0  0  0
   -2.5932   -2.5885   30.8213 H   0  0  0  0  0  0  0  0  0  0  0  0
   -3.1179   -1.3939   31.9845 H   0  0  0  0  0  0  0  0  0  0  0  0
   -1.2890   -1.8601   33.3979 H   0  0  0  0  0  0  0  0  0  0  0  0
   -0.3314   -3.4529   34.7358 H   0  0  0  0  0  0  0  0  0  0  0  0
    3.5018   -8.5193   39.1609 H   0  0  0  0  0  0  0  0  0  0  0  0
    5.5757  -10.1757   39.7111 H   0  0  0  0  0  0  0  0  0  0  0  0
    6.5510  -10.9864   37.3009 H   0  0  0  0  0  0  0  0  0  0  0  0
    5.1539   -9.8767   35.5310 H   0  0  0  0  0  0  0  0  0  0  0  0
   -0.6702   -8.3530   33.9011 H   0  0  0  0  0  0  0  0  0  0  0  0
   -0.9702   -4.2260   30.5596 H   0  0  0  0  0  0  0  0  0  0  0  0
   -0.8523   -1.7518   29.0268 H   0  0  0  0  0  0  0  0  0  0  0  0
    1.7426   -1.7062   28.5390 H   0  0  0  0  0  0  0  0  0  0  0  0
    3.6660   -1.2660   27.0628 H   0  0  0  0  0  0  0  0  0  0  0  0
  1  2  2  0
  2  3  1  0
  3  4  2  0
  4  5  1  0
  5  6  2  0
  6  7  1  0
  7  8  2  0
  8  9  1  0
  9 10  1  0
 10 11  1  0
 11 12  1  0
 12 13  2  0
 13 14  1  0
 14 15  1  0
 15 16  2  0
 16 17  1  0
 17 18  2  0
 18 19  1  0
 19 20  2  0
 20 21  1  0
 21 22  2  0
 22 23  1  0
 18 24  1  0
 13 25  1  0
 25 26  1  0
 26 27  2  0
 27 28  1  0
 28 29  2  0
 29 30  1  0
  8 31  1  0
  4 32  1  0
 32 33  2  0
 33  1  1  0
 31  5  1  0
 30 11  2  0
 24 15  1  0
 29 25  1  0
 23 19  1  0
  1 34  1  0
  2 35  1  0
  3 36  1  0
  9 37  1  0
  9 38  1  0
 10 39  1  0
 12 40  1  0
 20 41  1  0
 21 42  1  0
 22 43  1  0
 23 44  1  0
 26 45  1  0
 30 46  1  0
 31 47  1  0
 32 48  1  0
 33 49  1  0
M  END
>  <Energy>  (593) 
47.797734976315802

>  <compound_id>  (593) 
4232

>  <target_id>  (593) 
1

>  <reference_id>  (593) 
59

>  <inspiration_ids>  (593) 
[148, 59]

>  <energy_score>  (593) 
-35.919838140916625

>  <distance_score>  (593) 
1.2045462976550274

>  <path>  (593) 
/opt/xchem-fragalysis-2/maxwin/BulkDock/SCRATCH/505735/C4232-P59/C4232-P59.minimised.mol

>  <scratch_subdir>  (593) 
/opt/xchem-fragalysis-2/maxwin/BulkDock/SCRATCH/505735/C4232-P59

>  <fragmenstein_runtime>  (593) 
4.02070164680481

>  <fragmenstein_outcome>  (593) 
too moved

>  <fragmenstein_mode>  (593) 
expansion

>  <fragmenstein_error>  (593) 


$$$$
C4233-P148
     RDKit          3D

 47 52  0  0  0  0  0  0  0  0999 V2000
   -4.9510   -8.1043   37.4684 C   0  0  0  0  0  0  0  0  0  0  0  0
   -3.7395   -8.8637   36.3010 C   0  0  0  0  0  0  0  0  0  0  0  0
   -2.1364   -8.0241   36.2487 C   0  0  0  0  0  0  0  0  0  0  0  0
   -1.5407   -6.7314   37.4208 C   0  0  0  0  0  0  0  0  0  0  0  0
   -0.1548   -6.2194   37.1238 C   0  0  0  0  0  0  0  0  0  0  0  0
    0.0231   -4.7876   37.1610 N   0  0  0  0  0  0  0  0  0  0  0  0
    1.2349   -4.5885   36.3061 N   0  0  0  0  0  0  0  0  0  0  0  0
    1.2485   -5.6938   35.3102 C   0  0  0  0  0  0  0  0  0  0  0  0
    2.4745   -6.6048   35.4223 C   0  0  0  0  0  0  0  0  0  0  0  0
    2.7539   -7.6139   34.6158 N   0  0  0  0  0  0  0  0  0  0  0  0
    3.7009   -8.3724   35.2518 N   0  0  0  0  0  0  0  0  0  0  0  0
    3.9140   -7.8144   36.4312 C   0  0  0  0  0  0  0  0  0  0  0  0
    4.7628   -8.3819   37.4213 C   0  0  0  0  0  0  0  0  0  0  0  0
    4.9852   -8.0063   38.7303 C   0  0  0  0  0  0  0  0  0  0  0  0
    5.8937   -8.9374   39.2926 C   0  0  0  0  0  0  0  0  0  0  0  0
    6.2062   -9.8514   38.3115 C   0  0  0  0  0  0  0  0  0  0  0  0
    5.5171   -9.5052   37.1792 N   0  0  0  0  0  0  0  0  0  0  0  0
    3.1665   -6.6743   36.6036 O   0  0  0  0  0  0  0  0  0  0  0  0
    1.0804   -5.1955   33.8488 C   0  0  0  0  0  0  0  0  0  0  0  0
    1.6394   -4.0332   33.4206 C   0  0  0  0  0  0  0  0  0  0  0  0
    1.5094   -3.5997   32.0401 C   0  0  0  0  0  0  0  0  0  0  0  0
    0.8752   -4.3488   31.1244 C   0  0  0  0  0  0  0  0  0  0  0  0
    0.3114   -5.5864   31.5145 C   0  0  0  0  0  0  0  0  0  0  0  0
   -0.3067   -6.5138   30.8156 N   0  0  0  0  0  0  0  0  0  0  0  0
   -0.6808   -7.5066   31.6727 N   0  0  0  0  0  0  0  0  0  0  0  0
   -0.2489   -7.1731   32.8675 C   0  0  0  0  0  0  0  0  0  0  0  0
    0.4045   -5.9651   32.8564 N   0  0  0  0  0  0  0  0  0  0  0  0
    0.1242   -6.5144   35.7322 N   0  0  0  0  0  0  0  0  0  0  0  0
   -2.4442   -6.2353   38.9348 C   0  0  0  0  0  0  0  0  0  0  0  0
   -4.3110   -7.1314   39.2085 C   0  0  0  0  0  0  0  0  0  0  0  0
   -5.7956   -8.0272   36.8469 H   0  0  0  0  0  0  0  0  0  0  0  0
   -4.0982   -9.3683   35.4108 H   0  0  0  0  0  0  0  0  0  0  0  0
   -1.5157   -8.2897   35.4031 H   0  0  0  0  0  0  0  0  0  0  0  0
    0.5500   -6.7242   37.7966 H   0  0  0  0  0  0  0  0  0  0  0  0
   -0.8050   -4.3916   36.7036 H   0  0  0  0  0  0  0  0  0  0  0  0
    1.1660   -3.6823   35.8474 H   0  0  0  0  0  0  0  0  0  0  0  0
    4.5316   -7.1622   39.2353 H   0  0  0  0  0  0  0  0  0  0  0  0
    6.2739   -8.9426   40.3066 H   0  0  0  0  0  0  0  0  0  0  0  0
    6.8537  -10.7186   38.3242 H   0  0  0  0  0  0  0  0  0  0  0  0
    5.5439  -10.0035   36.2978 H   0  0  0  0  0  0  0  0  0  0  0  0
    2.2333   -3.3887   34.0637 H   0  0  0  0  0  0  0  0  0  0  0  0
    1.9451   -2.6432   31.7618 H   0  0  0  0  0  0  0  0  0  0  0  0
    0.7754   -4.0279   30.0924 H   0  0  0  0  0  0  0  0  0  0  0  0
   -0.3765   -7.7876   33.7352 H   0  0  0  0  0  0  0  0  0  0  0  0
    0.4123   -7.4915   35.7282 H   0  0  0  0  0  0  0  0  0  0  0  0
   -2.0027   -5.5893   39.7036 H   0  0  0  0  0  0  0  0  0  0  0  0
   -4.9670   -6.7810   40.0507 H   0  0  0  0  0  0  0  0  0  0  0  0
  1  2  2  0
  2  3  1  0
  3  4  2  0
  4  5  1  0
  5  6  1  0
  6  7  1  0
  7  8  1  0
  8  9  1  0
  9 10  2  0
 10 11  1  0
 11 12  2  0
 12 13  1  0
 13 14  2  0
 14 15  1  0
 15 16  2  0
 16 17  1  0
 12 18  1  0
  8 19  1  0
 19 20  2  0
 20 21  1  0
 21 22  2  0
 22 23  1  0
 23 24  2  0
 24 25  1  0
 25 26  2  0
 26 27  1  0
  8 28  1  0
  4 29  1  0
 29 30  2  0
 30  1  1  0
 28  5  1  0
 18  9  1  0
 27 19  1  0
 17 13  1  0
 27 23  1  0
  1 31  1  0
  2 32  1  0
  3 33  1  0
  5 34  1  0
  6 35  1  0
  7 36  1  0
 14 37  1  0
 15 38  1  0
 16 39  1  0
 17 40  1  0
 20 41  1  0
 21 42  1  0
 22 43  1  0
 26 44  1  0
 28 45  1  0
 29 46  1  0
 30 47  1  0
M  END
>  <Energy>  (594) 
626.60505118372737

>  <compound_id>  (594) 
4233

>  <target_id>  (594) 
1

>  <reference_id>  (594) 
148

>  <inspiration_ids>  (594) 
[148, 78]

>  <energy_score>  (594) 
520.1778619707836

>  <distance_score>  (594) 
1.4366965366667894

>  <path>  (594) 
/opt/xchem-fragalysis-2/maxwin/BulkDock/SCRATCH/505735/C4233-P148/C4233-P148.minimised.mol

>  <scratch_subdir>  (594) 
/opt/xchem-fragalysis-2/maxwin/BulkDock/SCRATCH/505735/C4233-P148

>  <fragmenstein_runtime>  (594) 
3.6313021183013916

>  <fragmenstein_outcome>  (594) 
too moved

>  <fragmenstein_mode>  (594) 
expansion

>  <fragmenstein_error>  (594) 


$$$$
C4233-P78
     RDKit          3D

 47 52  0  0  0  0  0  0  0  0999 V2000
   -4.9934   -8.1375   37.3998 C   0  0  0  0  0  0  0  0  0  0  0  0
   -3.6622   -8.8337   36.3245 C   0  0  0  0  0  0  0  0  0  0  0  0
   -2.0319   -8.0238   36.4729 C   0  0  0  0  0  0  0  0  0  0  0  0
   -1.5949   -6.7557   37.7484 C   0  0  0  0  0  0  0  0  0  0  0  0
   -0.2171   -6.1589   37.6052 C   0  0  0  0  0  0  0  0  0  0  0  0
   -0.1685   -4.7123   37.5467 N   0  0  0  0  0  0  0  0  0  0  0  0
    1.1171   -4.4929   36.8719 N   0  0  0  0  0  0  0  0  0  0  0  0
    1.2036   -5.5101   35.8037 C   0  0  0  0  0  0  0  0  0  0  0  0
    2.6160   -6.0854   35.7305 C   0  0  0  0  0  0  0  0  0  0  0  0
    3.4905   -6.1031   34.7446 N   0  0  0  0  0  0  0  0  0  0  0  0
    4.4938   -6.9715   35.1341 N   0  0  0  0  0  0  0  0  0  0  0  0
    4.1603   -7.4478   36.3185 C   0  0  0  0  0  0  0  0  0  0  0  0
    4.8782   -8.4560   37.0201 C   0  0  0  0  0  0  0  0  0  0  0  0
    4.6180   -9.0385   38.2452 C   0  0  0  0  0  0  0  0  0  0  0  0
    5.6166  -10.0162   38.4745 C   0  0  0  0  0  0  0  0  0  0  0  0
    6.4595  -10.0029   37.3859 C   0  0  0  0  0  0  0  0  0  0  0  0
    6.0080   -9.0481   36.5118 N   0  0  0  0  0  0  0  0  0  0  0  0
    2.9818   -6.9177   36.7644 O   0  0  0  0  0  0  0  0  0  0  0  0
    0.6969   -5.0082   34.4198 C   0  0  0  0  0  0  0  0  0  0  0  0
    0.7118   -3.7025   34.0435 C   0  0  0  0  0  0  0  0  0  0  0  0
    0.2531   -3.2915   32.7256 C   0  0  0  0  0  0  0  0  0  0  0  0
   -0.2022   -4.1797   31.8284 C   0  0  0  0  0  0  0  0  0  0  0  0
   -0.2392   -5.5503   32.1756 C   0  0  0  0  0  0  0  0  0  0  0  0
   -0.6329   -6.6065   31.4977 N   0  0  0  0  0  0  0  0  0  0  0  0
   -0.4391   -7.7034   32.2904 N   0  0  0  0  0  0  0  0  0  0  0  0
    0.0729   -7.2869   33.4262 C   0  0  0  0  0  0  0  0  0  0  0  0
    0.2127   -5.9232   33.4436 N   0  0  0  0  0  0  0  0  0  0  0  0
    0.3270   -6.5680   36.3202 N   0  0  0  0  0  0  0  0  0  0  0  0
   -2.6770   -6.2824   39.1625 C   0  0  0  0  0  0  0  0  0  0  0  0
   -4.5255   -7.2450   39.2257 C   0  0  0  0  0  0  0  0  0  0  0  0
   -5.9056   -8.2344   36.8885 H   0  0  0  0  0  0  0  0  0  0  0  0
   -3.9103   -9.3741   35.4172 H   0  0  0  0  0  0  0  0  0  0  0  0
   -1.3032   -8.2928   35.7149 H   0  0  0  0  0  0  0  0  0  0  0  0
    0.4065   -6.5307   38.4284 H   0  0  0  0  0  0  0  0  0  0  0  0
   -0.9524   -4.4189   36.9541 H   0  0  0  0  0  0  0  0  0  0  0  0
    1.2474   -3.5421   36.5418 H   0  0  0  0  0  0  0  0  0  0  0  0
    3.7948   -8.7933   38.9050 H   0  0  0  0  0  0  0  0  0  0  0  0
    5.7096  -10.6624   39.3387 H   0  0  0  0  0  0  0  0  0  0  0  0
    7.3410  -10.5888   37.1595 H   0  0  0  0  0  0  0  0  0  0  0  0
    6.4327   -8.8147   35.6223 H   0  0  0  0  0  0  0  0  0  0  0  0
    1.0817   -2.8979   34.6692 H   0  0  0  0  0  0  0  0  0  0  0  0
    0.2898   -2.2329   32.4808 H   0  0  0  0  0  0  0  0  0  0  0  0
   -0.5404   -3.8746   30.8435 H   0  0  0  0  0  0  0  0  0  0  0  0
    0.3506   -7.9295   34.2421 H   0  0  0  0  0  0  0  0  0  0  0  0
    0.8848   -7.3943   36.5293 H   0  0  0  0  0  0  0  0  0  0  0  0
   -2.3323   -5.6560   39.9919 H   0  0  0  0  0  0  0  0  0  0  0  0
   -5.2353   -6.9980   40.0674 H   0  0  0  0  0  0  0  0  0  0  0  0
  1  2  2  0
  2  3  1  0
  3  4  2  0
  4  5  1  0
  5  6  1  0
  6  7  1  0
  7  8  1  0
  8  9  1  0
  9 10  2  0
 10 11  1  0
 11 12  2  0
 12 13  1  0
 13 14  2  0
 14 15  1  0
 15 16  2  0
 16 17  1  0
 12 18  1  0
  8 19  1  0
 19 20  2  0
 20 21  1  0
 21 22  2  0
 22 23  1  0
 23 24  2  0
 24 25  1  0
 25 26  2  0
 26 27  1  0
  8 28  1  0
  4 29  1  0
 29 30  2  0
 30  1  1  0
 28  5  1  0
 18  9  1  0
 27 19  1  0
 17 13  1  0
 27 23  1  0
  1 31  1  0
  2 32  1  0
  3 33  1  0
  5 34  1  0
  6 35  1  0
  7 36  1  0
 14 37  1  0
 15 38  1  0
 16 39  1  0
 17 40  1  0
 20 41  1  0
 21 42  1  0
 22 43  1  0
 26 44  1  0
 28 45  1  0
 29 46  1  0
 30 47  1  0
M  END
>  <Energy>  (595) 
609.14077507727666

>  <compound_id>  (595) 
4233

>  <target_id>  (595) 
1

>  <reference_id>  (595) 
78

>  <inspiration_ids>  (595) 
[148, 78]

>  <energy_score>  (595) 
502.71358586432683

>  <distance_score>  (595) 
1.5366702821701872

>  <path>  (595) 
/opt/xchem-fragalysis-2/maxwin/BulkDock/SCRATCH/505735/C4233-P78/C4233-P78.minimised.mol

>  <scratch_subdir>  (595) 
/opt/xchem-fragalysis-2/maxwin/BulkDock/SCRATCH/505735/C4233-P78

>  <fragmenstein_runtime>  (595) 
2.9976248741149902

>  <fragmenstein_outcome>  (595) 
too moved

>  <fragmenstein_mode>  (595) 
expansion

>  <fragmenstein_error>  (595) 


$$$$
C4234-P148
     RDKit          3D

 52 54  0  0  0  0  0  0  0  0999 V2000
    0.4736   -5.8478   40.0447 C   0  0  0  0  0  0  0  0  0  0  0  0
    1.2308   -6.6553   39.0006 C   0  0  0  0  0  0  0  0  0  0  0  0
    2.0818   -7.7466   39.6478 C   0  0  0  0  0  0  0  0  0  0  0  0
    2.7715   -8.7095   38.6611 C   0  0  0  0  0  0  0  0  0  0  0  0
    3.9096   -8.1665   37.7331 C   0  0  0  0  0  0  0  0  0  0  0  0
    3.3429   -7.4402   36.5431 C   0  0  0  0  0  0  0  0  0  0  0  0
    3.9729   -6.6972   35.6587 N   0  0  0  0  0  0  0  0  0  0  0  0
    3.0428   -6.3157   34.7293 N   0  0  0  0  0  0  0  0  0  0  0  0
    1.8957   -6.8497   35.0901 C   0  0  0  0  0  0  0  0  0  0  0  0
    0.6142   -6.8520   34.3136 C   0  0  0  0  0  0  0  0  0  0  0  0
   -0.6351   -7.2642   35.0823 C   0  0  0  0  0  0  0  0  0  0  0  0
   -1.7467   -7.5907   34.0935 C   0  0  0  0  0  0  0  0  0  0  0  0
    0.3620   -5.5761   33.6235 N   0  0  0  0  0  0  0  0  0  0  0  0
    1.0559   -5.5113   32.3422 C   0  0  0  0  0  0  0  0  0  0  0  0
    0.7231   -4.2110   31.6367 C   0  0  0  0  0  0  0  0  0  0  0  0
    2.0173   -7.6163   36.2156 O   0  0  0  0  0  0  0  0  0  0  0  0
    4.8792   -7.2492   38.5198 C   0  0  0  0  0  0  0  0  0  0  0  0
    5.5774   -7.9809   39.6836 C   0  0  0  0  0  0  0  0  0  0  0  0
    5.9153   -9.4628   39.4485 C   0  0  0  0  0  0  0  0  0  0  0  0
    5.7138   -9.8692   38.0419 C   0  0  0  0  0  0  0  0  0  0  0  0
    6.3758  -10.7582   37.3391 N   0  0  0  0  0  0  0  0  0  0  0  0
    5.9331  -10.6741   36.0413 N   0  0  0  0  0  0  0  0  0  0  0  0
    5.0178   -9.7340   35.9895 C   0  0  0  0  0  0  0  0  0  0  0  0
    4.7718   -9.2681   37.2441 N   0  0  0  0  0  0  0  0  0  0  0  0
   -0.2015   -6.4876   40.6221 H   0  0  0  0  0  0  0  0  0  0  0  0
   -0.1277   -5.0722   39.5600 H   0  0  0  0  0  0  0  0  0  0  0  0
    1.1641   -5.3593   40.7395 H   0  0  0  0  0  0  0  0  0  0  0  0
    0.5049   -7.1052   38.3142 H   0  0  0  0  0  0  0  0  0  0  0  0
    1.8613   -5.9712   38.4245 H   0  0  0  0  0  0  0  0  0  0  0  0
    2.8103   -7.2936   40.3264 H   0  0  0  0  0  0  0  0  0  0  0  0
    1.4258   -8.3559   40.2844 H   0  0  0  0  0  0  0  0  0  0  0  0
    1.9808   -9.1422   38.0499 H   0  0  0  0  0  0  0  0  0  0  0  0
    3.1519   -9.5450   39.2613 H   0  0  0  0  0  0  0  0  0  0  0  0
    0.7528   -7.6224   33.5491 H   0  0  0  0  0  0  0  0  0  0  0  0
   -0.9575   -6.4746   35.7721 H   0  0  0  0  0  0  0  0  0  0  0  0
   -0.4381   -8.1521   35.6930 H   0  0  0  0  0  0  0  0  0  0  0  0
   -2.6187   -7.9761   34.6274 H   0  0  0  0  0  0  0  0  0  0  0  0
   -2.0373   -6.7011   33.5348 H   0  0  0  0  0  0  0  0  0  0  0  0
   -1.4352   -8.3422   33.3629 H   0  0  0  0  0  0  0  0  0  0  0  0
    0.6435   -4.7968   34.2206 H   0  0  0  0  0  0  0  0  0  0  0  0
    2.1404   -5.5701   32.4687 H   0  0  0  0  0  0  0  0  0  0  0  0
    0.7434   -6.3404   31.6966 H   0  0  0  0  0  0  0  0  0  0  0  0
    1.2304   -4.1664   30.6674 H   0  0  0  0  0  0  0  0  0  0  0  0
    1.0448   -3.3451   32.2252 H   0  0  0  0  0  0  0  0  0  0  0  0
   -0.3538   -4.1223   31.4561 H   0  0  0  0  0  0  0  0  0  0  0  0
    5.6638   -6.8761   37.8442 H   0  0  0  0  0  0  0  0  0  0  0  0
    4.3759   -6.3497   38.8940 H   0  0  0  0  0  0  0  0  0  0  0  0
    6.5012   -7.4373   39.9217 H   0  0  0  0  0  0  0  0  0  0  0  0
    4.9682   -7.9069   40.5920 H   0  0  0  0  0  0  0  0  0  0  0  0
    6.9534   -9.6501   39.7463 H   0  0  0  0  0  0  0  0  0  0  0  0
    5.2923  -10.0909   40.0961 H   0  0  0  0  0  0  0  0  0  0  0  0
    4.5306   -9.3932   35.0871 H   0  0  0  0  0  0  0  0  0  0  0  0
  1  2  1  0
  2  3  1  0
  3  4  1  0
  4  5  1  0
  5  6  1  0
  6  7  2  0
  7  8  1  0
  8  9  2  0
  9 10  1  0
 10 11  1  0
 11 12  1  0
 10 13  1  0
 13 14  1  0
 14 15  1  0
  9 16  1  0
  5 17  1  0
 17 18  1  0
 18 19  1  0
 19 20  1  0
 20 21  2  0
 21 22  1  0
 22 23  2  0
 23 24  1  0
 24  5  1  0
 16  6  1  0
 24 20  1  0
  1 25  1  0
  1 26  1  0
  1 27  1  0
  2 28  1  0
  2 29  1  0
  3 30  1  0
  3 31  1  0
  4 32  1  0
  4 33  1  0
 10 34  1  0
 11 35  1  0
 11 36  1  0
 12 37  1  0
 12 38  1  0
 12 39  1  0
 13 40  1  0
 14 41  1  0
 14 42  1  0
 15 43  1  0
 15 44  1  0
 15 45  1  0
 17 46  1  0
 17 47  1  0
 18 48  1  0
 18 49  1  0
 19 50  1  0
 19 51  1  0
 23 52  1  0
M  END
>  <Energy>  (596) 
44.274194276578321

>  <compound_id>  (596) 
4234

>  <target_id>  (596) 
1

>  <reference_id>  (596) 
148

>  <inspiration_ids>  (596) 
[148, 105]

>  <energy_score>  (596) 
-47.33961571388177

>  <distance_score>  (596) 
1.4264293339707697

>  <path>  (596) 
/opt/xchem-fragalysis-2/maxwin/BulkDock/SCRATCH/505735/C4234-P148/C4234-P148.minimised.mol

>  <scratch_subdir>  (596) 
/opt/xchem-fragalysis-2/maxwin/BulkDock/SCRATCH/505735/C4234-P148

>  <fragmenstein_runtime>  (596) 
1.739936351776123

>  <fragmenstein_outcome>  (596) 
too moved

>  <fragmenstein_mode>  (596) 
expansion

>  <fragmenstein_error>  (596) 


$$$$
C4234-P105
     RDKit          3D

 52 54  0  0  0  0  0  0  0  0999 V2000
    6.3930   -4.2913   40.9963 C   0  0  0  0  0  0  0  0  0  0  0  0
    5.6041   -4.5355   39.7196 C   0  0  0  0  0  0  0  0  0  0  0  0
    5.3050   -6.0236   39.5209 C   0  0  0  0  0  0  0  0  0  0  0  0
    4.5008   -6.2551   38.2324 C   0  0  0  0  0  0  0  0  0  0  0  0
    4.2294   -7.7466   37.8579 C   0  0  0  0  0  0  0  0  0  0  0  0
    3.5131   -7.7710   36.5299 C   0  0  0  0  0  0  0  0  0  0  0  0
    3.9115   -8.3118   35.3986 N   0  0  0  0  0  0  0  0  0  0  0  0
    2.9454   -8.0534   34.4868 N   0  0  0  0  0  0  0  0  0  0  0  0
    1.9976   -7.3838   35.0976 C   0  0  0  0  0  0  0  0  0  0  0  0
    0.7097   -6.9803   34.4712 C   0  0  0  0  0  0  0  0  0  0  0  0
   -0.5137   -7.3429   35.2908 C   0  0  0  0  0  0  0  0  0  0  0  0
   -1.6792   -7.5160   34.3412 C   0  0  0  0  0  0  0  0  0  0  0  0
    0.6567   -5.5977   33.9790 N   0  0  0  0  0  0  0  0  0  0  0  0
    1.4049   -5.4546   32.7318 C   0  0  0  0  0  0  0  0  0  0  0  0
    1.0919   -4.1182   32.0861 C   0  0  0  0  0  0  0  0  0  0  0  0
    2.2839   -7.1459   36.4157 O   0  0  0  0  0  0  0  0  0  0  0  0
    3.3302   -8.4215   38.9353 C   0  0  0  0  0  0  0  0  0  0  0  0
    3.3126   -9.9458   38.7911 C   0  0  0  0  0  0  0  0  0  0  0  0
    4.7159  -10.5192   38.9798 C   0  0  0  0  0  0  0  0  0  0  0  0
    5.7127   -9.7642   38.1872 C   0  0  0  0  0  0  0  0  0  0  0  0
    6.9360  -10.1262   37.8714 N   0  0  0  0  0  0  0  0  0  0  0  0
    7.5017   -9.1082   37.1403 N   0  0  0  0  0  0  0  0  0  0  0  0
    6.6101   -8.1516   37.0285 C   0  0  0  0  0  0  0  0  0  0  0  0
    5.4777   -8.5046   37.6989 N   0  0  0  0  0  0  0  0  0  0  0  0
    5.8349   -4.6331   41.8738 H   0  0  0  0  0  0  0  0  0  0  0  0
    6.5960   -3.2227   41.1179 H   0  0  0  0  0  0  0  0  0  0  0  0
    7.3519   -4.8187   40.9717 H   0  0  0  0  0  0  0  0  0  0  0  0
    4.6662   -3.9696   39.7624 H   0  0  0  0  0  0  0  0  0  0  0  0
    6.1761   -4.1532   38.8661 H   0  0  0  0  0  0  0  0  0  0  0  0
    6.2497   -6.5768   39.4886 H   0  0  0  0  0  0  0  0  0  0  0  0
    4.7451   -6.3870   40.3885 H   0  0  0  0  0  0  0  0  0  0  0  0
    5.0239   -5.7597   37.4023 H   0  0  0  0  0  0  0  0  0  0  0  0
    3.5410   -5.7280   38.3292 H   0  0  0  0  0  0  0  0  0  0  0  0
    0.6466   -7.6224   33.5816 H   0  0  0  0  0  0  0  0  0  0  0  0
   -0.7368   -6.5763   36.0427 H   0  0  0  0  0  0  0  0  0  0  0  0
   -0.3545   -8.2807   35.8364 H   0  0  0  0  0  0  0  0  0  0  0  0
   -2.5482   -7.8675   34.8987 H   0  0  0  0  0  0  0  0  0  0  0  0
   -1.9014   -6.5655   33.8564 H   0  0  0  0  0  0  0  0  0  0  0  0
   -1.4731   -8.2431   33.5503 H   0  0  0  0  0  0  0  0  0  0  0  0
    0.9971   -4.9504   34.6886 H   0  0  0  0  0  0  0  0  0  0  0  0
    2.4823   -5.5274   32.9172 H   0  0  0  0  0  0  0  0  0  0  0  0
    1.1323   -6.2379   32.0143 H   0  0  0  0  0  0  0  0  0  0  0  0
    1.3734   -3.2859   32.7400 H   0  0  0  0  0  0  0  0  0  0  0  0
    0.0243   -4.0288   31.8575 H   0  0  0  0  0  0  0  0  0  0  0  0
    1.6469   -4.0119   31.1484 H   0  0  0  0  0  0  0  0  0  0  0  0
    2.3036   -8.0375   38.8861 H   0  0  0  0  0  0  0  0  0  0  0  0
    3.6946   -8.1965   39.9439 H   0  0  0  0  0  0  0  0  0  0  0  0
    2.6375  -10.3828   39.5358 H   0  0  0  0  0  0  0  0  0  0  0  0
    2.9199  -10.2269   37.8060 H   0  0  0  0  0  0  0  0  0  0  0  0
    4.9960  -10.4688   40.0387 H   0  0  0  0  0  0  0  0  0  0  0  0
    4.7251  -11.5758   38.6911 H   0  0  0  0  0  0  0  0  0  0  0  0
    6.7424   -7.2249   36.4888 H   0  0  0  0  0  0  0  0  0  0  0  0
  1  2  1  0
  2  3  1  0
  3  4  1  0
  4  5  1  0
  5  6  1  0
  6  7  2  0
  7  8  1  0
  8  9  2  0
  9 10  1  0
 10 11  1  0
 11 12  1  0
 10 13  1  0
 13 14  1  0
 14 15  1  0
  9 16  1  0
  5 17  1  0
 17 18  1  0
 18 19  1  0
 19 20  1  0
 20 21  2  0
 21 22  1  0
 22 23  2  0
 23 24  1  0
 24  5  1  0
 16  6  1  0
 24 20  1  0
  1 25  1  0
  1 26  1  0
  1 27  1  0
  2 28  1  0
  2 29  1  0
  3 30  1  0
  3 31  1  0
  4 32  1  0
  4 33  1  0
 10 34  1  0
 11 35  1  0
 11 36  1  0
 12 37  1  0
 12 38  1  0
 12 39  1  0
 13 40  1  0
 14 41  1  0
 14 42  1  0
 15 43  1  0
 15 44  1  0
 15 45  1  0
 17 46  1  0
 17 47  1  0
 18 48  1  0
 18 49  1  0
 19 50  1  0
 19 51  1  0
 23 52  1  0
M  END
>  <Energy>  (597) 
36.001467770696621

>  <compound_id>  (597) 
4234

>  <target_id>  (597) 
1

>  <reference_id>  (597) 
105

>  <inspiration_ids>  (597) 
[148, 105]

>  <energy_score>  (597) 
-55.612342219763406

>  <distance_score>  (597) 
1.4763585561937451

>  <path>  (597) 
/opt/xchem-fragalysis-2/maxwin/BulkDock/SCRATCH/505735/C4234-P105/C4234-P105.minimised.mol

>  <scratch_subdir>  (597) 
/opt/xchem-fragalysis-2/maxwin/BulkDock/SCRATCH/505735/C4234-P105

>  <fragmenstein_runtime>  (597) 
1.6602764129638672

>  <fragmenstein_outcome>  (597) 
too moved

>  <fragmenstein_mode>  (597) 
expansion

>  <fragmenstein_error>  (597) 


$$$$
C4236-P148
     RDKit          3D

 45 49  0  0  0  0  0  0  0  0999 V2000
   -1.6356   -7.6159   34.7526 N   0  0  0  0  0  0  0  0  0  0  0  0
   -1.3009   -7.3737   33.4689 C   0  0  0  0  0  0  0  0  0  0  0  0
   -1.6592   -8.1196   32.4455 N   0  0  0  0  0  0  0  0  0  0  0  0
   -1.1054   -7.6090   31.3103 N   0  0  0  0  0  0  0  0  0  0  0  0
   -0.4071   -6.5581   31.6650 C   0  0  0  0  0  0  0  0  0  0  0  0
   -0.5026   -6.3438   33.0233 N   0  0  0  0  0  0  0  0  0  0  0  0
    0.1274   -5.1895   33.7057 C   0  0  0  0  0  0  0  0  0  0  0  0
    0.4799   -5.4632   35.4908 S   0  0  0  0  0  0  0  0  0  0  0  0
    1.7471   -6.6413   35.4848 C   0  0  0  0  0  0  0  0  0  0  0  0
    2.0890   -7.4108   34.4724 N   0  0  0  0  0  0  0  0  0  0  0  0
    3.0998   -8.2344   34.9280 N   0  0  0  0  0  0  0  0  0  0  0  0
    3.2971   -7.9282   36.1987 C   0  0  0  0  0  0  0  0  0  0  0  0
    4.2218   -8.6001   37.0497 C   0  0  0  0  0  0  0  0  0  0  0  0
    4.3372   -8.5750   38.4257 C   0  0  0  0  0  0  0  0  0  0  0  0
    5.3697   -9.4756   38.7863 C   0  0  0  0  0  0  0  0  0  0  0  0
    5.8674  -10.0157   37.6218 C   0  0  0  0  0  0  0  0  0  0  0  0
    5.1724   -9.4713   36.5727 N   0  0  0  0  0  0  0  0  0  0  0  0
    2.4566   -6.9331   36.6176 O   0  0  0  0  0  0  0  0  0  0  0  0
    1.3122   -4.4509   32.8430 C   0  0  0  0  0  0  0  0  0  0  0  0
    1.6625   -5.3308   31.6137 C   0  0  0  0  0  0  0  0  0  0  0  0
    0.4510   -5.7386   30.7996 C   0  0  0  0  0  0  0  0  0  0  0  0
    0.8177   -3.0731   32.2307 C   0  0  0  0  0  0  0  0  0  0  0  0
    0.9871   -1.8912   33.0754 N   0  0  0  0  0  0  0  0  0  0  0  0
    2.3720   -1.7890   33.5380 C   0  0  0  0  0  0  0  0  0  0  0  0
    2.7516   -3.0469   34.3262 C   0  0  0  0  0  0  0  0  0  0  0  0
    2.6405   -4.2878   33.5376 N   0  0  0  0  0  0  0  0  0  0  0  0
   -1.0617   -7.2136   35.4878 H   0  0  0  0  0  0  0  0  0  0  0  0
   -1.7783   -8.6205   34.9199 H   0  0  0  0  0  0  0  0  0  0  0  0
   -0.7020   -4.4712   33.7476 H   0  0  0  0  0  0  0  0  0  0  0  0
    3.7232   -7.9949   39.1041 H   0  0  0  0  0  0  0  0  0  0  0  0
    5.7065   -9.7099   39.7885 H   0  0  0  0  0  0  0  0  0  0  0  0
    6.6508  -10.7425   37.4505 H   0  0  0  0  0  0  0  0  0  0  0  0
    5.3116   -9.6981   35.5954 H   0  0  0  0  0  0  0  0  0  0  0  0
    2.1395   -6.2377   31.9882 H   0  0  0  0  0  0  0  0  0  0  0  0
    2.3855   -4.8332   30.9541 H   0  0  0  0  0  0  0  0  0  0  0  0
   -0.0983   -4.8785   30.4067 H   0  0  0  0  0  0  0  0  0  0  0  0
    0.7788   -6.3333   29.9419 H   0  0  0  0  0  0  0  0  0  0  0  0
    1.3502   -2.8712   31.2912 H   0  0  0  0  0  0  0  0  0  0  0  0
   -0.2435   -3.1472   31.9658 H   0  0  0  0  0  0  0  0  0  0  0  0
    0.7397   -1.0507   32.5510 H   0  0  0  0  0  0  0  0  0  0  0  0
    3.0520   -1.6417   32.6902 H   0  0  0  0  0  0  0  0  0  0  0  0
    2.4666   -0.9128   34.1883 H   0  0  0  0  0  0  0  0  0  0  0  0
    3.7876   -2.9547   34.6721 H   0  0  0  0  0  0  0  0  0  0  0  0
    2.1370   -3.1143   35.2294 H   0  0  0  0  0  0  0  0  0  0  0  0
    3.3780   -4.2385   32.8323 H   0  0  0  0  0  0  0  0  0  0  0  0
  1  2  1  0
  2  3  2  0
  3  4  1  0
  4  5  2  0
  5  6  1  0
  6  7  1  0
  7  8  1  0
  8  9  1  0
  9 10  2  0
 10 11  1  0
 11 12  2  0
 12 13  1  0
 13 14  2  0
 14 15  1  0
 15 16  2  0
 16 17  1  0
 12 18  1  0
  7 19  1  0
 19 20  1  0
 20 21  1  0
 19 22  1  0
 22 23  1  0
 23 24  1  0
 24 25  1  0
 25 26  1  0
  6  2  1  0
 18  9  1  0
 26 19  1  0
 21  5  1  0
 17 13  1  0
  1 27  1  0
  1 28  1  0
  7 29  1  0
 14 30  1  0
 15 31  1  0
 16 32  1  0
 17 33  1  0
 20 34  1  0
 20 35  1  0
 21 36  1  0
 21 37  1  0
 22 38  1  0
 22 39  1  0
 23 40  1  0
 24 41  1  0
 24 42  1  0
 25 43  1  0
 25 44  1  0
 26 45  1  0
M  END
>  <Energy>  (598) 
77.956561377754383

>  <compound_id>  (598) 
4236

>  <target_id>  (598) 
1

>  <reference_id>  (598) 
148

>  <inspiration_ids>  (598) 
[148, 129]

>  <energy_score>  (598) 
-81.65330121761409

>  <distance_score>  (598) 
0.9137813558228106

>  <path>  (598) 
/opt/xchem-fragalysis-2/maxwin/BulkDock/SCRATCH/505735/C4236-P148/C4236-P148.minimised.mol

>  <scratch_subdir>  (598) 
/opt/xchem-fragalysis-2/maxwin/BulkDock/SCRATCH/505735/C4236-P148

>  <fragmenstein_runtime>  (598) 
2.1037421226501465

>  <fragmenstein_outcome>  (598) 
acceptable

>  <fragmenstein_mode>  (598) 
expansion

>  <fragmenstein_error>  (598) 


$$$$
C4236-P129
     RDKit          3D

 45 49  0  0  0  0  0  0  0  0999 V2000
   -1.5154   -7.6821   34.6969 N   0  0  0  0  0  0  0  0  0  0  0  0
   -1.1912   -7.4109   33.4158 C   0  0  0  0  0  0  0  0  0  0  0  0
   -1.5772   -8.1164   32.3736 N   0  0  0  0  0  0  0  0  0  0  0  0
   -1.0284   -7.5827   31.2459 N   0  0  0  0  0  0  0  0  0  0  0  0
   -0.2977   -6.5638   31.6235 C   0  0  0  0  0  0  0  0  0  0  0  0
   -0.3900   -6.3765   32.9866 N   0  0  0  0  0  0  0  0  0  0  0  0
    0.2275   -5.2263   33.6835 C   0  0  0  0  0  0  0  0  0  0  0  0
    0.5639   -5.5001   35.4690 S   0  0  0  0  0  0  0  0  0  0  0  0
    1.8414   -6.6656   35.4768 C   0  0  0  0  0  0  0  0  0  0  0  0
    2.2447   -7.3922   34.4553 N   0  0  0  0  0  0  0  0  0  0  0  0
    3.2486   -8.2151   34.9270 N   0  0  0  0  0  0  0  0  0  0  0  0
    3.3840   -7.9467   36.2134 C   0  0  0  0  0  0  0  0  0  0  0  0
    4.2848   -8.6323   37.0790 C   0  0  0  0  0  0  0  0  0  0  0  0
    4.3888   -8.6027   38.4556 C   0  0  0  0  0  0  0  0  0  0  0  0
    5.3982   -9.5244   38.8289 C   0  0  0  0  0  0  0  0  0  0  0  0
    5.8915  -10.0830   37.6710 C   0  0  0  0  0  0  0  0  0  0  0  0
    5.2168   -9.5289   36.6138 N   0  0  0  0  0  0  0  0  0  0  0  0
    2.5130   -6.9778   36.6279 O   0  0  0  0  0  0  0  0  0  0  0  0
    1.4094   -4.4718   32.8313 C   0  0  0  0  0  0  0  0  0  0  0  0
    1.7871   -5.3472   31.6041 C   0  0  0  0  0  0  0  0  0  0  0  0
    0.5847   -5.7554   30.7729 C   0  0  0  0  0  0  0  0  0  0  0  0
    0.8949   -3.1025   32.2127 C   0  0  0  0  0  0  0  0  0  0  0  0
    1.0334   -1.9153   33.0562 N   0  0  0  0  0  0  0  0  0  0  0  0
    2.4093   -1.7884   33.5370 C   0  0  0  0  0  0  0  0  0  0  0  0
    2.8019   -3.0395   34.3298 C   0  0  0  0  0  0  0  0  0  0  0  0
    2.7273   -4.2806   33.5383 N   0  0  0  0  0  0  0  0  0  0  0  0
   -1.6874   -8.6927   34.8422 H   0  0  0  0  0  0  0  0  0  0  0  0
   -0.9066   -7.3531   35.4385 H   0  0  0  0  0  0  0  0  0  0  0  0
   -0.6076   -4.5140   33.7238 H   0  0  0  0  0  0  0  0  0  0  0  0
    3.7844   -8.0010   39.1238 H   0  0  0  0  0  0  0  0  0  0  0  0
    5.7250   -9.7575   39.8348 H   0  0  0  0  0  0  0  0  0  0  0  0
    6.6606  -10.8258   37.5084 H   0  0  0  0  0  0  0  0  0  0  0  0
    5.3584   -9.7595   35.6378 H   0  0  0  0  0  0  0  0  0  0  0  0
    2.2794   -6.2497   31.9743 H   0  0  0  0  0  0  0  0  0  0  0  0
    2.5109   -4.8370   30.9545 H   0  0  0  0  0  0  0  0  0  0  0  0
    0.0471   -4.8947   30.3647 H   0  0  0  0  0  0  0  0  0  0  0  0
    0.9244   -6.3540   29.9214 H   0  0  0  0  0  0  0  0  0  0  0  0
    1.4335   -2.8920   31.2787 H   0  0  0  0  0  0  0  0  0  0  0  0
   -0.1620   -3.1959   31.9373 H   0  0  0  0  0  0  0  0  0  0  0  0
    0.7762   -1.0808   32.5275 H   0  0  0  0  0  0  0  0  0  0  0  0
    3.0978   -1.6283   32.6984 H   0  0  0  0  0  0  0  0  0  0  0  0
    2.4795   -0.9110   34.1888 H   0  0  0  0  0  0  0  0  0  0  0  0
    3.8308   -2.9270   34.6906 H   0  0  0  0  0  0  0  0  0  0  0  0
    2.1760   -3.1198   35.2242 H   0  0  0  0  0  0  0  0  0  0  0  0
    3.4694   -4.2156   32.8399 H   0  0  0  0  0  0  0  0  0  0  0  0
  1  2  1  0
  2  3  2  0
  3  4  1  0
  4  5  2  0
  5  6  1  0
  6  7  1  0
  7  8  1  0
  8  9  1  0
  9 10  2  0
 10 11  1  0
 11 12  2  0
 12 13  1  0
 13 14  2  0
 14 15  1  0
 15 16  2  0
 16 17  1  0
 12 18  1  0
  7 19  1  0
 19 20  1  0
 20 21  1  0
 19 22  1  0
 22 23  1  0
 23 24  1  0
 24 25  1  0
 25 26  1  0
  6  2  1  0
 18  9  1  0
 26 19  1  0
 21  5  1  0
 17 13  1  0
  1 27  1  0
  1 28  1  0
  7 29  1  0
 14 30  1  0
 15 31  1  0
 16 32  1  0
 17 33  1  0
 20 34  1  0
 20 35  1  0
 21 36  1  0
 21 37  1  0
 22 38  1  0
 22 39  1  0
 23 40  1  0
 24 41  1  0
 24 42  1  0
 25 43  1  0
 25 44  1  0
 26 45  1  0
M  END
>  <Energy>  (599) 
77.540765649382138

>  <compound_id>  (599) 
4236

>  <target_id>  (599) 
1

>  <reference_id>  (599) 
129

>  <inspiration_ids>  (599) 
[148, 129]

>  <energy_score>  (599) 
-82.06909694598652

>  <distance_score>  (599) 
0.9101522072456582

>  <path>  (599) 
/opt/xchem-fragalysis-2/maxwin/BulkDock/SCRATCH/505735/C4236-P129/C4236-P129.minimised.mol

>  <scratch_subdir>  (599) 
/opt/xchem-fragalysis-2/maxwin/BulkDock/SCRATCH/505735/C4236-P129

>  <fragmenstein_runtime>  (599) 
1.595395565032959

>  <fragmenstein_outcome>  (599) 
acceptable

>  <fragmenstein_mode>  (599) 
expansion

>  <fragmenstein_error>  (599) 


$$$$
C4237-P148
     RDKit          3D

 45 49  0  0  0  0  0  0  0  0999 V2000
   -1.2760   -7.6769   34.3198 N   0  0  0  0  0  0  0  0  0  0  0  0
   -0.9439   -7.2941   33.0755 C   0  0  0  0  0  0  0  0  0  0  0  0
   -1.2964   -7.8845   31.9526 N   0  0  0  0  0  0  0  0  0  0  0  0
   -0.8043   -7.1504   30.8974 N   0  0  0  0  0  0  0  0  0  0  0  0
   -0.1893   -6.1039   31.3999 C   0  0  0  0  0  0  0  0  0  0  0  0
   -0.1703   -6.2095   32.7702 N   0  0  0  0  0  0  0  0  0  0  0  0
    0.6996   -5.3142   33.5154 C   0  0  0  0  0  0  0  0  0  0  0  0
    0.6865   -5.4606   35.3354 S   0  0  0  0  0  0  0  0  0  0  0  0
    1.8749   -6.7149   35.5376 C   0  0  0  0  0  0  0  0  0  0  0  0
    2.2836   -7.5045   34.5661 N   0  0  0  0  0  0  0  0  0  0  0  0
    3.2503   -8.3191   35.0996 N   0  0  0  0  0  0  0  0  0  0  0  0
    3.3563   -7.9973   36.3778 C   0  0  0  0  0  0  0  0  0  0  0  0
    4.2359   -8.6558   37.2825 C   0  0  0  0  0  0  0  0  0  0  0  0
    4.2967   -8.6074   38.6601 C   0  0  0  0  0  0  0  0  0  0  0  0
    5.3170   -9.4996   39.0743 C   0  0  0  0  0  0  0  0  0  0  0  0
    5.8597  -10.0593   37.9397 C   0  0  0  0  0  0  0  0  0  0  0  0
    5.2032   -9.5362   36.8569 N   0  0  0  0  0  0  0  0  0  0  0  0
    2.4906   -6.9897   36.7248 O   0  0  0  0  0  0  0  0  0  0  0  0
    0.5295   -3.8368   33.0708 C   0  0  0  0  0  0  0  0  0  0  0  0
    0.1785   -3.6033   31.5416 C   0  0  0  0  0  0  0  0  0  0  0  0
   -1.3164   -3.1556   31.4645 C   0  0  0  0  0  0  0  0  0  0  0  0
   -1.7799   -2.6714   30.1649 N   0  0  0  0  0  0  0  0  0  0  0  0
   -0.9505   -1.5608   29.6999 C   0  0  0  0  0  0  0  0  0  0  0  0
    0.5348   -1.9451   29.7149 C   0  0  0  0  0  0  0  0  0  0  0  0
    1.0021   -2.4530   31.0332 N   0  0  0  0  0  0  0  0  0  0  0  0
    0.4241   -4.9182   30.7194 C   0  0  0  0  0  0  0  0  0  0  0  0
   -1.5182   -8.6680   34.4292 H   0  0  0  0  0  0  0  0  0  0  0  0
   -0.7789   -7.3239   35.1287 H   0  0  0  0  0  0  0  0  0  0  0  0
    1.7101   -5.5872   33.1808 H   0  0  0  0  0  0  0  0  0  0  0  0
    3.6585   -8.0164   39.3057 H   0  0  0  0  0  0  0  0  0  0  0  0
    5.6166   -9.7156   40.0924 H   0  0  0  0  0  0  0  0  0  0  0  0
    6.6507  -10.7870   37.8117 H   0  0  0  0  0  0  0  0  0  0  0  0
    5.3808   -9.7788   35.8896 H   0  0  0  0  0  0  0  0  0  0  0  0
   -0.2328   -3.3484   33.6930 H   0  0  0  0  0  0  0  0  0  0  0  0
    1.4694   -3.3186   33.3112 H   0  0  0  0  0  0  0  0  0  0  0  0
   -1.5066   -2.3575   32.1954 H   0  0  0  0  0  0  0  0  0  0  0  0
   -1.9463   -3.9828   31.7719 H   0  0  0  0  0  0  0  0  0  0  0  0
   -1.7279   -3.3994   29.4468 H   0  0  0  0  0  0  0  0  0  0  0  0
   -1.2531   -1.2806   28.6849 H   0  0  0  0  0  0  0  0  0  0  0  0
   -1.1209   -0.6838   30.3362 H   0  0  0  0  0  0  0  0  0  0  0  0
    1.1372   -1.0675   29.4550 H   0  0  0  0  0  0  0  0  0  0  0  0
    0.7400   -2.6986   28.9454 H   0  0  0  0  0  0  0  0  0  0  0  0
    0.8970   -1.6740   31.6879 H   0  0  0  0  0  0  0  0  0  0  0  0
    0.0222   -4.8348   29.7044 H   0  0  0  0  0  0  0  0  0  0  0  0
    1.5027   -5.0977   30.6226 H   0  0  0  0  0  0  0  0  0  0  0  0
  1  2  1  0
  2  3  2  0
  3  4  1  0
  4  5  2  0
  5  6  1  0
  6  7  1  0
  7  8  1  0
  8  9  1  0
  9 10  2  0
 10 11  1  0
 11 12  2  0
 12 13  1  0
 13 14  2  0
 14 15  1  0
 15 16  2  0
 16 17  1  0
 12 18  1  0
  7 19  1  0
 19 20  1  0
 20 21  1  0
 21 22  1  0
 22 23  1  0
 23 24  1  0
 24 25  1  0
 20 26  1  0
  6  2  1  0
 18  9  1  0
 25 20  1  0
 26  5  1  0
 17 13  1  0
  1 27  1  0
  1 28  1  0
  7 29  1  0
 14 30  1  0
 15 31  1  0
 16 32  1  0
 17 33  1  0
 19 34  1  0
 19 35  1  0
 21 36  1  0
 21 37  1  0
 22 38  1  0
 23 39  1  0
 23 40  1  0
 24 41  1  0
 24 42  1  0
 25 43  1  0
 26 44  1  0
 26 45  1  0
M  END
>  <Energy>  (600) 
62.093758079098876

>  <compound_id>  (600) 
4237

>  <target_id>  (600) 
1

>  <reference_id>  (600) 
148

>  <inspiration_ids>  (600) 
[148, 130]

>  <energy_score>  (600) 
-71.3799119199154

>  <distance_score>  (600) 
1.337873556658063

>  <path>  (600) 
/opt/xchem-fragalysis-2/maxwin/BulkDock/SCRATCH/505735/C4237-P148/C4237-P148.minimised.mol

>  <scratch_subdir>  (600) 
/opt/xchem-fragalysis-2/maxwin/BulkDock/SCRATCH/505735/C4237-P148

>  <fragmenstein_runtime>  (600) 
2.5091898441314697

>  <fragmenstein_outcome>  (600) 
too moved

>  <fragmenstein_mode>  (600) 
expansion

>  <fragmenstein_error>  (600) 


$$$$
C4237-P130
     RDKit          3D

 45 49  0  0  0  0  0  0  0  0999 V2000
   -1.1998   -7.7040   34.2561 N   0  0  0  0  0  0  0  0  0  0  0  0
   -0.9295   -7.2929   33.0073 C   0  0  0  0  0  0  0  0  0  0  0  0
   -1.3391   -7.8570   31.8903 N   0  0  0  0  0  0  0  0  0  0  0  0
   -0.9139   -7.0907   30.8289 N   0  0  0  0  0  0  0  0  0  0  0  0
   -0.2493   -6.0721   31.3242 C   0  0  0  0  0  0  0  0  0  0  0  0
   -0.1742   -6.1992   32.6915 N   0  0  0  0  0  0  0  0  0  0  0  0
    0.7357   -5.3319   33.4232 C   0  0  0  0  0  0  0  0  0  0  0  0
    0.7310   -5.4611   35.2453 S   0  0  0  0  0  0  0  0  0  0  0  0
    1.9455   -6.6869   35.4629 C   0  0  0  0  0  0  0  0  0  0  0  0
    2.3961   -7.4606   34.4966 N   0  0  0  0  0  0  0  0  0  0  0  0
    3.3689   -8.2546   35.0487 N   0  0  0  0  0  0  0  0  0  0  0  0
    3.4343   -7.9410   36.3319 C   0  0  0  0  0  0  0  0  0  0  0  0
    4.2879   -8.6065   37.2572 C   0  0  0  0  0  0  0  0  0  0  0  0
    4.3131   -8.5652   38.6362 C   0  0  0  0  0  0  0  0  0  0  0  0
    5.3112   -9.4719   39.0726 C   0  0  0  0  0  0  0  0  0  0  0  0
    5.8757  -10.0343   37.9500 C   0  0  0  0  0  0  0  0  0  0  0  0
    5.2534   -9.4990   36.8530 N   0  0  0  0  0  0  0  0  0  0  0  0
    2.5393   -6.9549   36.6634 O   0  0  0  0  0  0  0  0  0  0  0  0
    0.6432   -3.8449   32.9747 C   0  0  0  0  0  0  0  0  0  0  0  0
    0.1588   -3.5909   31.4914 C   0  0  0  0  0  0  0  0  0  0  0  0
   -1.3439   -3.1735   31.5531 C   0  0  0  0  0  0  0  0  0  0  0  0
   -1.9243   -2.7145   30.2914 N   0  0  0  0  0  0  0  0  0  0  0  0
   -1.1643   -1.5767   29.7653 C   0  0  0  0  0  0  0  0  0  0  0  0
    0.3314   -1.9095   29.6618 C   0  0  0  0  0  0  0  0  0  0  0  0
    0.9157   -2.4188   30.9316 N   0  0  0  0  0  0  0  0  0  0  0  0
    0.3562   -4.8891   30.6376 C   0  0  0  0  0  0  0  0  0  0  0  0
   -1.4399   -8.6981   34.3538 H   0  0  0  0  0  0  0  0  0  0  0  0
   -0.6803   -7.3617   35.0545 H   0  0  0  0  0  0  0  0  0  0  0  0
    1.7274   -5.6536   33.0769 H   0  0  0  0  0  0  0  0  0  0  0  0
    3.6648   -7.9697   39.2677 H   0  0  0  0  0  0  0  0  0  0  0  0
    5.5820   -9.6944   40.0975 H   0  0  0  0  0  0  0  0  0  0  0  0
    6.6621  -10.7695   37.8391 H   0  0  0  0  0  0  0  0  0  0  0  0
    5.4530   -9.7391   35.8895 H   0  0  0  0  0  0  0  0  0  0  0  0
   -0.0004   -3.2802   33.6628 H   0  0  0  0  0  0  0  0  0  0  0  0
    1.6462   -3.4123   33.1057 H   0  0  0  0  0  0  0  0  0  0  0  0
   -1.4815   -2.3701   32.2901 H   0  0  0  0  0  0  0  0  0  0  0  0
   -1.9266   -4.0073   31.9313 H   0  0  0  0  0  0  0  0  0  0  0  0
   -1.8783   -3.4420   29.5740 H   0  0  0  0  0  0  0  0  0  0  0  0
   -1.5541   -1.3067   28.7776 H   0  0  0  0  0  0  0  0  0  0  0  0
   -1.3135   -0.7059   30.4151 H   0  0  0  0  0  0  0  0  0  0  0  0
    0.8825   -1.0087   29.3692 H   0  0  0  0  0  0  0  0  0  0  0  0
    0.5011   -2.6456   28.8674 H   0  0  0  0  0  0  0  0  0  0  0  0
    0.8507   -1.6498   31.6030 H   0  0  0  0  0  0  0  0  0  0  0  0
   -0.0844   -4.7844   29.6415 H   0  0  0  0  0  0  0  0  0  0  0  0
    1.4275   -5.0803   30.4944 H   0  0  0  0  0  0  0  0  0  0  0  0
  1  2  1  0
  2  3  2  0
  3  4  1  0
  4  5  2  0
  5  6  1  0
  6  7  1  0
  7  8  1  0
  8  9  1  0
  9 10  2  0
 10 11  1  0
 11 12  2  0
 12 13  1  0
 13 14  2  0
 14 15  1  0
 15 16  2  0
 16 17  1  0
 12 18  1  0
  7 19  1  0
 19 20  1  0
 20 21  1  0
 21 22  1  0
 22 23  1  0
 23 24  1  0
 24 25  1  0
 20 26  1  0
  6  2  1  0
 18  9  1  0
 25 20  1  0
 26  5  1  0
 17 13  1  0
  1 27  1  0
  1 28  1  0
  7 29  1  0
 14 30  1  0
 15 31  1  0
 16 32  1  0
 17 33  1  0
 19 34  1  0
 19 35  1  0
 21 36  1  0
 21 37  1  0
 22 38  1  0
 23 39  1  0
 23 40  1  0
 24 41  1  0
 24 42  1  0
 25 43  1  0
 26 44  1  0
 26 45  1  0
M  END
>  <Energy>  (601) 
61.83596782847858

>  <compound_id>  (601) 
4237

>  <target_id>  (601) 
1

>  <reference_id>  (601) 
130

>  <inspiration_ids>  (601) 
[148, 130]

>  <energy_score>  (601) 
-71.63770217053678

>  <distance_score>  (601) 
1.3131383182813388

>  <path>  (601) 
/opt/xchem-fragalysis-2/maxwin/BulkDock/SCRATCH/505735/C4237-P130/C4237-P130.minimised.mol

>  <scratch_subdir>  (601) 
/opt/xchem-fragalysis-2/maxwin/BulkDock/SCRATCH/505735/C4237-P130

>  <fragmenstein_runtime>  (601) 
2.001357078552246

>  <fragmenstein_outcome>  (601) 
too moved

>  <fragmenstein_mode>  (601) 
expansion

>  <fragmenstein_error>  (601) 


$$$$
C4238-P148
     RDKit          3D

 50 55  0  0  0  0  0  0  0  0999 V2000
    2.7930   -1.3624   29.0883 C   0  0  0  0  0  0  0  0  0  0  0  0
    2.0136   -2.3229   29.6034 C   0  0  0  0  0  0  0  0  0  0  0  0
    0.6697   -2.6977   29.0479 C   0  0  0  0  0  0  0  0  0  0  0  0
   -0.4060   -2.4389   29.9853 N   0  0  0  0  0  0  0  0  0  0  0  0
   -1.2128   -1.3218   29.9760 C   0  0  0  0  0  0  0  0  0  0  0  0
   -0.9512   -0.1062   29.2397 C   0  0  0  0  0  0  0  0  0  0  0  0
   -1.4930    0.1616   27.9883 C   0  0  0  0  0  0  0  0  0  0  0  0
   -1.2884    1.4153   27.4168 C   0  0  0  0  0  0  0  0  0  0  0  0
   -0.5019    2.3328   28.0972 C   0  0  0  0  0  0  0  0  0  0  0  0
    0.1000    2.0729   29.2775 N   0  0  0  0  0  0  0  0  0  0  0  0
   -0.1592    0.8707   29.8301 C   0  0  0  0  0  0  0  0  0  0  0  0
   -2.1312   -1.4513   30.9109 N   0  0  0  0  0  0  0  0  0  0  0  0
   -1.8838   -2.6059   31.5902 N   0  0  0  0  0  0  0  0  0  0  0  0
   -0.7964   -3.1595   31.0871 C   0  0  0  0  0  0  0  0  0  0  0  0
   -0.1563   -4.3216   31.6029 C   0  0  0  0  0  0  0  0  0  0  0  0
    0.0978   -4.4504   33.0493 C   0  0  0  0  0  0  0  0  0  0  0  0
   -0.0700   -5.6392   33.6612 C   0  0  0  0  0  0  0  0  0  0  0  0
    0.0747   -5.7869   35.3881 S   0  0  0  0  0  0  0  0  0  0  0  0
    1.4955   -6.7961   35.4785 C   0  0  0  0  0  0  0  0  0  0  0  0
    2.0576   -7.4097   34.4556 N   0  0  0  0  0  0  0  0  0  0  0  0
    3.1144   -8.1340   34.9593 N   0  0  0  0  0  0  0  0  0  0  0  0
    3.1443   -7.9140   36.2623 C   0  0  0  0  0  0  0  0  0  0  0  0
    4.0698   -8.5404   37.1472 C   0  0  0  0  0  0  0  0  0  0  0  0
    4.0983   -8.5736   38.5272 C   0  0  0  0  0  0  0  0  0  0  0  0
    5.1818   -9.4013   38.9145 C   0  0  0  0  0  0  0  0  0  0  0  0
    5.7933   -9.8428   37.7630 C   0  0  0  0  0  0  0  0  0  0  0  0
    5.1202   -9.3064   36.6962 N   0  0  0  0  0  0  0  0  0  0  0  0
    2.1323   -7.0756   36.6584 O   0  0  0  0  0  0  0  0  0  0  0  0
   -0.4707   -6.7088   32.8576 N   0  0  0  0  0  0  0  0  0  0  0  0
   -1.0592   -7.9034   33.1511 C   0  0  0  0  0  0  0  0  0  0  0  0
   -1.3385   -8.5611   32.0471 N   0  0  0  0  0  0  0  0  0  0  0  0
   -0.9252   -7.8021   30.9858 N   0  0  0  0  0  0  0  0  0  0  0  0
   -0.4514   -6.6755   31.4718 C   0  0  0  0  0  0  0  0  0  0  0  0
   -0.1976   -5.4319   30.8343 C   0  0  0  0  0  0  0  0  0  0  0  0
    2.4887   -0.7718   28.2266 H   0  0  0  0  0  0  0  0  0  0  0  0
    3.7607   -1.1302   29.5247 H   0  0  0  0  0  0  0  0  0  0  0  0
    2.3756   -2.8783   30.4652 H   0  0  0  0  0  0  0  0  0  0  0  0
    0.6564   -3.7569   28.7827 H   0  0  0  0  0  0  0  0  0  0  0  0
    0.4540   -2.1504   28.1257 H   0  0  0  0  0  0  0  0  0  0  0  0
   -2.0944   -0.5814   27.4723 H   0  0  0  0  0  0  0  0  0  0  0  0
   -1.7498    1.6792   26.4723 H   0  0  0  0  0  0  0  0  0  0  0  0
   -0.3348    3.3315   27.7015 H   0  0  0  0  0  0  0  0  0  0  0  0
    0.2923    0.7180   30.8069 H   0  0  0  0  0  0  0  0  0  0  0  0
    0.3344   -3.5404   33.5964 H   0  0  0  0  0  0  0  0  0  0  0  0
    3.3959   -8.0831   39.1903 H   0  0  0  0  0  0  0  0  0  0  0  0
    5.4756   -9.6549   39.9257 H   0  0  0  0  0  0  0  0  0  0  0  0
    6.6453  -10.4930   37.6122 H   0  0  0  0  0  0  0  0  0  0  0  0
    5.3398   -9.4722   35.7215 H   0  0  0  0  0  0  0  0  0  0  0  0
   -1.2789   -8.2238   34.1574 H   0  0  0  0  0  0  0  0  0  0  0  0
   -0.4203   -5.3965   29.7734 H   0  0  0  0  0  0  0  0  0  0  0  0
  1  2  2  0
  2  3  1  0
  3  4  1  0
  4  5  1  0
  5  6  1  0
  6  7  2  0
  7  8  1  0
  8  9  2  0
  9 10  1  0
 10 11  2  0
  5 12  2  0
 12 13  1  0
 13 14  2  0
 14 15  1  0
 15 16  1  0
 16 17  2  0
 17 18  1  0
 18 19  1  0
 19 20  2  0
 20 21  1  0
 21 22  2  0
 22 23  1  0
 23 24  2  0
 24 25  1  0
 25 26  2  0
 26 27  1  0
 22 28  1  0
 17 29  1  0
 29 30  1  0
 30 31  2  0
 31 32  1  0
 32 33  2  0
 33 34  1  0
 14  4  1  0
 34 15  2  0
 11  6  1  0
 28 19  1  0
 33 29  1  0
 27 23  1  0
  1 35  1  0
  1 36  1  0
  2 37  1  0
  3 38  1  0
  3 39  1  0
  7 40  1  0
  8 41  1  0
  9 42  1  0
 11 43  1  0
 16 44  1  0
 24 45  1  0
 25 46  1  0
 26 47  1  0
 27 48  1  0
 30 49  1  0
 34 50  1  0
M  END
>  <Energy>  (602) 
89.690318515198044

>  <compound_id>  (602) 
4238

>  <target_id>  (602) 
1

>  <reference_id>  (602) 
148

>  <inspiration_ids>  (602) 
[148, 131]

>  <energy_score>  (602) 
-31.787348445274773

>  <distance_score>  (602) 
0.5991776806029919

>  <path>  (602) 
/opt/xchem-fragalysis-2/maxwin/BulkDock/SCRATCH/505735/C4238-P148/C4238-P148.minimised.mol

>  <scratch_subdir>  (602) 
/opt/xchem-fragalysis-2/maxwin/BulkDock/SCRATCH/505735/C4238-P148

>  <fragmenstein_runtime>  (602) 
4.961358070373535

>  <fragmenstein_outcome>  (602) 
acceptable

>  <fragmenstein_mode>  (602) 
expansion

>  <fragmenstein_error>  (602) 


$$$$
C4238-P131
     RDKit          3D

 50 55  0  0  0  0  0  0  0  0999 V2000
    2.8319   -3.5489   29.7047 C   0  0  0  0  0  0  0  0  0  0  0  0
    1.9304   -2.5591   29.6454 C   0  0  0  0  0  0  0  0  0  0  0  0
    0.5622   -2.6853   29.0386 C   0  0  0  0  0  0  0  0  0  0  0  0
   -0.4980   -2.4099   29.9915 N   0  0  0  0  0  0  0  0  0  0  0  0
   -1.3035   -1.2915   29.9864 C   0  0  0  0  0  0  0  0  0  0  0  0
   -1.0488   -0.0807   29.2410 C   0  0  0  0  0  0  0  0  0  0  0  0
   -1.6035    0.1782   27.9938 C   0  0  0  0  0  0  0  0  0  0  0  0
   -1.3863    1.4201   27.4024 C   0  0  0  0  0  0  0  0  0  0  0  0
   -0.5757    2.3338   28.0592 C   0  0  0  0  0  0  0  0  0  0  0  0
    0.0300    2.0861   29.2408 N   0  0  0  0  0  0  0  0  0  0  0  0
   -0.2435    0.8964   29.8140 C   0  0  0  0  0  0  0  0  0  0  0  0
   -2.2116   -1.4132   30.9317 N   0  0  0  0  0  0  0  0  0  0  0  0
   -1.9556   -2.5626   31.6172 N   0  0  0  0  0  0  0  0  0  0  0  0
   -0.8781   -3.1255   31.1027 C   0  0  0  0  0  0  0  0  0  0  0  0
   -0.2431   -4.2967   31.6043 C   0  0  0  0  0  0  0  0  0  0  0  0
    0.0152   -4.4565   33.0463 C   0  0  0  0  0  0  0  0  0  0  0  0
   -0.0876   -5.6708   33.6229 C   0  0  0  0  0  0  0  0  0  0  0  0
    0.0724   -5.8589   35.3430 S   0  0  0  0  0  0  0  0  0  0  0  0
    1.5230   -6.8259   35.4127 C   0  0  0  0  0  0  0  0  0  0  0  0
    2.1561   -7.3475   34.3785 N   0  0  0  0  0  0  0  0  0  0  0  0
    3.2253   -8.0585   34.8828 N   0  0  0  0  0  0  0  0  0  0  0  0
    3.1916   -7.9140   36.1962 C   0  0  0  0  0  0  0  0  0  0  0  0
    4.1076   -8.5479   37.0871 C   0  0  0  0  0  0  0  0  0  0  0  0
    4.1138   -8.6013   38.4671 C   0  0  0  0  0  0  0  0  0  0  0  0
    5.1958   -9.4282   38.8603 C   0  0  0  0  0  0  0  0  0  0  0  0
    5.8270   -9.8508   37.7120 C   0  0  0  0  0  0  0  0  0  0  0  0
    5.1685   -9.3015   36.6422 N   0  0  0  0  0  0  0  0  0  0  0  0
    2.1345   -7.1400   36.5980 O   0  0  0  0  0  0  0  0  0  0  0  0
   -0.4414   -6.7350   32.7908 N   0  0  0  0  0  0  0  0  0  0  0  0
   -0.9607   -7.9676   33.0495 C   0  0  0  0  0  0  0  0  0  0  0  0
   -1.2042   -8.6078   31.9264 N   0  0  0  0  0  0  0  0  0  0  0  0
   -0.8470   -7.7930   30.8863 N   0  0  0  0  0  0  0  0  0  0  0  0
   -0.4398   -6.6578   31.4074 C   0  0  0  0  0  0  0  0  0  0  0  0
   -0.2525   -5.3875   30.8089 C   0  0  0  0  0  0  0  0  0  0  0  0
    3.8112   -3.3765   30.1441 H   0  0  0  0  0  0  0  0  0  0  0  0
    2.6274   -4.5408   29.3151 H   0  0  0  0  0  0  0  0  0  0  0  0
    2.2024   -1.5787   30.0347 H   0  0  0  0  0  0  0  0  0  0  0  0
    0.3835   -3.6772   28.6165 H   0  0  0  0  0  0  0  0  0  0  0  0
    0.4810   -1.9804   28.2063 H   0  0  0  0  0  0  0  0  0  0  0  0
   -2.2242   -0.5614   27.4947 H   0  0  0  0  0  0  0  0  0  0  0  0
   -1.8557    1.6758   26.4591 H   0  0  0  0  0  0  0  0  0  0  0  0
   -0.3929    3.3207   27.6420 H   0  0  0  0  0  0  0  0  0  0  0  0
    0.2083    0.7538   30.7922 H   0  0  0  0  0  0  0  0  0  0  0  0
    0.2069   -3.5534   33.6210 H   0  0  0  0  0  0  0  0  0  0  0  0
    3.3985   -8.1193   39.1230 H   0  0  0  0  0  0  0  0  0  0  0  0
    5.4780   -9.6907   39.8725 H   0  0  0  0  0  0  0  0  0  0  0  0
    6.6866  -10.4908   37.5648 H   0  0  0  0  0  0  0  0  0  0  0  0
    5.4055   -9.4455   35.6682 H   0  0  0  0  0  0  0  0  0  0  0  0
   -1.1612   -8.3242   34.0476 H   0  0  0  0  0  0  0  0  0  0  0  0
   -0.4694   -5.3343   29.7504 H   0  0  0  0  0  0  0  0  0  0  0  0
  1  2  2  0
  2  3  1  0
  3  4  1  0
  4  5  1  0
  5  6  1  0
  6  7  2  0
  7  8  1  0
  8  9  2  0
  9 10  1  0
 10 11  2  0
  5 12  2  0
 12 13  1  0
 13 14  2  0
 14 15  1  0
 15 16  1  0
 16 17  2  0
 17 18  1  0
 18 19  1  0
 19 20  2  0
 20 21  1  0
 21 22  2  0
 22 23  1  0
 23 24  2  0
 24 25  1  0
 25 26  2  0
 26 27  1  0
 22 28  1  0
 17 29  1  0
 29 30  1  0
 30 31  2  0
 31 32  1  0
 32 33  2  0
 33 34  1  0
 14  4  1  0
 34 15  2  0
 11  6  1  0
 28 19  1  0
 33 29  1  0
 27 23  1  0
  1 35  1  0
  1 36  1  0
  2 37  1  0
  3 38  1  0
  3 39  1  0
  7 40  1  0
  8 41  1  0
  9 42  1  0
 11 43  1  0
 16 44  1  0
 24 45  1  0
 25 46  1  0
 26 47  1  0
 27 48  1  0
 30 49  1  0
 34 50  1  0
M  END
>  <Energy>  (603) 
87.61848488078121

>  <compound_id>  (603) 
4238

>  <target_id>  (603) 
1

>  <reference_id>  (603) 
131

>  <inspiration_ids>  (603) 
[148, 131]

>  <energy_score>  (603) 
-33.85918207969324

>  <distance_score>  (603) 
0.602885313553687

>  <path>  (603) 
/opt/xchem-fragalysis-2/maxwin/BulkDock/SCRATCH/505735/C4238-P131/C4238-P131.minimised.mol

>  <scratch_subdir>  (603) 
/opt/xchem-fragalysis-2/maxwin/BulkDock/SCRATCH/505735/C4238-P131

>  <fragmenstein_runtime>  (603) 
5.914916276931763

>  <fragmenstein_outcome>  (603) 
acceptable

>  <fragmenstein_mode>  (603) 
expansion

>  <fragmenstein_error>  (603) 


$$$$
C4241-P148
     RDKit          3D

 64 70  0  0  0  0  0  0  0  0999 V2000
   -0.2794   -2.4983   31.1026 O   0  0  0  0  0  0  0  0  0  0  0  0
    0.8542   -2.2359   30.9612 C   0  0  0  0  0  0  0  0  0  0  0  0
    1.8341   -1.4566   31.8912 N   0  0  0  0  0  0  0  0  0  0  0  0
    1.5911   -0.7545   33.1500 C   0  0  0  0  0  0  0  0  0  0  0  0
    2.8983   -0.1707   33.8027 C   0  0  0  0  0  0  0  0  0  0  0  0
    4.1201   -0.2926   33.2638 N   0  0  0  0  0  0  0  0  0  0  0  0
    4.8743    0.3193   34.1977 N   0  0  0  0  0  0  0  0  0  0  0  0
    4.1207    0.7591   35.2509 C   0  0  0  0  0  0  0  0  0  0  0  0
    4.6256    1.4314   36.4087 C   0  0  0  0  0  0  0  0  0  0  0  0
    3.8806    1.8967   37.4755 C   0  0  0  0  0  0  0  0  0  0  0  0
    4.6827    2.5223   38.4740 C   0  0  0  0  0  0  0  0  0  0  0  0
    6.0176    2.5152   38.1384 C   0  0  0  0  0  0  0  0  0  0  0  0
    6.2944    1.7583   36.6304 S   0  0  0  0  0  0  0  0  0  0  0  0
    2.8623    0.4713   35.0177 N   0  0  0  0  0  0  0  0  0  0  0  0
    0.7435   -1.5542   34.1689 C   0  0  0  0  0  0  0  0  0  0  0  0
   -0.4881   -0.7554   33.7230 C   0  0  0  0  0  0  0  0  0  0  0  0
    0.4422    0.2691   33.0562 C   0  0  0  0  0  0  0  0  0  0  0  0
    1.5955   -2.6535   29.6644 C   0  0  0  0  0  0  0  0  0  0  0  0
    1.3668   -1.2326   28.4993 S   0  0  0  0  0  0  0  0  0  0  0  0
    3.3714   -2.8466   29.8749 Cl  0  0  0  0  0  0  0  0  0  0  0  0
    0.9536   -3.9443   29.0927 C   0  0  0  0  0  0  0  0  0  0  0  0
    1.2224   -5.2551   29.7747 N   0  0  0  0  0  0  0  0  0  0  0  0
    0.9159   -5.5082   31.1171 C   0  0  0  0  0  0  0  0  0  0  0  0
    1.6098   -4.9335   32.1221 C   0  0  0  0  0  0  0  0  0  0  0  0
    1.3168   -5.1353   33.5201 C   0  0  0  0  0  0  0  0  0  0  0  0
    0.3598   -6.0082   33.8791 C   0  0  0  0  0  0  0  0  0  0  0  0
    0.1206   -6.3870   35.5574 S   0  0  0  0  0  0  0  0  0  0  0  0
    1.6233   -7.2606   35.7377 C   0  0  0  0  0  0  0  0  0  0  0  0
    2.2726   -7.8100   34.7274 N   0  0  0  0  0  0  0  0  0  0  0  0
    3.4024   -8.3807   35.2448 N   0  0  0  0  0  0  0  0  0  0  0  0
    3.3651   -8.1752   36.5500 C   0  0  0  0  0  0  0  0  0  0  0  0
    4.3043   -8.7485   37.4501 C   0  0  0  0  0  0  0  0  0  0  0  0
    4.3267   -8.7577   38.8289 C   0  0  0  0  0  0  0  0  0  0  0  0
    5.4309   -9.5495   39.2301 C   0  0  0  0  0  0  0  0  0  0  0  0
    6.0560   -9.9955   38.0871 C   0  0  0  0  0  0  0  0  0  0  0  0
    5.3711   -9.4962   37.0113 N   0  0  0  0  0  0  0  0  0  0  0  0
    2.2603   -7.4531   36.9292 O   0  0  0  0  0  0  0  0  0  0  0  0
   -0.3202   -6.6852   32.8609 N   0  0  0  0  0  0  0  0  0  0  0  0
   -1.2755   -7.6669   32.8941 C   0  0  0  0  0  0  0  0  0  0  0  0
   -1.5612   -8.0751   31.6776 N   0  0  0  0  0  0  0  0  0  0  0  0
   -0.7919   -7.3462   30.8015 N   0  0  0  0  0  0  0  0  0  0  0  0
   -0.0684   -6.4925   31.5035 C   0  0  0  0  0  0  0  0  0  0  0  0
    2.7322   -1.3394   31.4192 H   0  0  0  0  0  0  0  0  0  0  0  0
    5.8759    0.3994   34.0670 H   0  0  0  0  0  0  0  0  0  0  0  0
    2.8028    1.7912   37.5331 H   0  0  0  0  0  0  0  0  0  0  0  0
    4.2982    2.9549   39.3899 H   0  0  0  0  0  0  0  0  0  0  0  0
    6.8449    2.9187   38.7067 H   0  0  0  0  0  0  0  0  0  0  0  0
    0.6513   -2.6256   34.0018 H   0  0  0  0  0  0  0  0  0  0  0  0
    0.9950   -1.3991   35.2245 H   0  0  0  0  0  0  0  0  0  0  0  0
   -1.1525   -1.2827   33.0337 H   0  0  0  0  0  0  0  0  0  0  0  0
   -1.0984   -0.3578   34.5398 H   0  0  0  0  0  0  0  0  0  0  0  0
    0.1406    0.5729   32.0483 H   0  0  0  0  0  0  0  0  0  0  0  0
    0.5758    1.1792   33.6533 H   0  0  0  0  0  0  0  0  0  0  0  0
    0.0314   -1.3414   28.3829 H   0  0  0  0  0  0  0  0  0  0  0  0
    1.3347   -4.0791   28.0756 H   0  0  0  0  0  0  0  0  0  0  0  0
   -0.1353   -3.8364   29.0025 H   0  0  0  0  0  0  0  0  0  0  0  0
    0.7369   -5.9665   29.2142 H   0  0  0  0  0  0  0  0  0  0  0  0
    2.4581   -4.2901   31.9320 H   0  0  0  0  0  0  0  0  0  0  0  0
    1.9295   -4.5994   34.2404 H   0  0  0  0  0  0  0  0  0  0  0  0
    3.6080   -8.2764   39.4812 H   0  0  0  0  0  0  0  0  0  0  0  0
    5.7293   -9.7795   40.2455 H   0  0  0  0  0  0  0  0  0  0  0  0
    6.9238  -10.6273   37.9492 H   0  0  0  0  0  0  0  0  0  0  0  0
    5.5904   -9.6754   36.0388 H   0  0  0  0  0  0  0  0  0  0  0  0
   -1.7064   -8.0518   33.8062 H   0  0  0  0  0  0  0  0  0  0  0  0
  1  2  2  0
  2  3  1  0
  3  4  1  0
  4  5  1  0
  5  6  2  0
  6  7  1  0
  7  8  1  0
  8  9  1  0
  9 10  2  0
 10 11  1  0
 11 12  2  0
 12 13  1  0
  8 14  2  0
  4 15  1  0
 15 16  1  0
 16 17  1  0
  2 18  1  0
 18 19  1  0
 18 20  1  0
 18 21  1  0
 21 22  1  0
 22 23  1  0
 23 24  2  0
 24 25  1  0
 25 26  2  0
 26 27  1  0
 27 28  1  0
 28 29  2  0
 29 30  1  0
 30 31  2  0
 31 32  1  0
 32 33  2  0
 33 34  1  0
 34 35  2  0
 35 36  1  0
 31 37  1  0
 26 38  1  0
 38 39  1  0
 39 40  2  0
 40 41  1  0
 41 42  2  0
 17  4  1  0
 42 23  1  0
 14  5  1  0
 37 28  1  0
 42 38  1  0
 13  9  1  0
 36 32  1  0
  3 43  1  0
  7 44  1  0
 10 45  1  0
 11 46  1  0
 12 47  1  0
 15 48  1  0
 15 49  1  0
 16 50  1  0
 16 51  1  0
 17 52  1  0
 17 53  1  0
 19 54  1  0
 21 55  1  0
 21 56  1  0
 22 57  1  0
 24 58  1  0
 25 59  1  0
 33 60  1  0
 34 61  1  0
 35 62  1  0
 36 63  1  0
 39 64  1  0
M  END
>  <Energy>  (604) 
166.50579733572002

>  <compound_id>  (604) 
4241

>  <target_id>  (604) 
1

>  <reference_id>  (604) 
148

>  <inspiration_ids>  (604) 
[148, 136]

>  <energy_score>  (604) 
-79.17320116193974

>  <distance_score>  (604) 
1.2434418453934448

>  <path>  (604) 
/opt/xchem-fragalysis-2/maxwin/BulkDock/SCRATCH/505735/C4241-P148/C4241-P148.minimised.mol

>  <scratch_subdir>  (604) 
/opt/xchem-fragalysis-2/maxwin/BulkDock/SCRATCH/505735/C4241-P148

>  <fragmenstein_runtime>  (604) 
7.050870656967163

>  <fragmenstein_outcome>  (604) 
too moved

>  <fragmenstein_mode>  (604) 
expansion

>  <fragmenstein_error>  (604) 


$$$$
C4241-P136
     RDKit          3D

 64 70  0  0  0  0  0  0  0  0999 V2000
    3.1013   -0.8871   29.3659 O   0  0  0  0  0  0  0  0  0  0  0  0
    2.8323   -1.7878   30.1126 C   0  0  0  0  0  0  0  0  0  0  0  0
    2.7445   -1.8221   31.5597 N   0  0  0  0  0  0  0  0  0  0  0  0
    2.8609   -0.7508   32.5582 C   0  0  0  0  0  0  0  0  0  0  0  0
    3.1632   -1.3881   33.9734 C   0  0  0  0  0  0  0  0  0  0  0  0
    4.3986   -1.6648   34.4109 N   0  0  0  0  0  0  0  0  0  0  0  0
    4.1389   -2.2706   35.5820 N   0  0  0  0  0  0  0  0  0  0  0  0
    2.7958   -2.3942   35.7977 C   0  0  0  0  0  0  0  0  0  0  0  0
    2.1919   -3.0547   36.9148 C   0  0  0  0  0  0  0  0  0  0  0  0
    0.8512   -3.0452   37.2499 C   0  0  0  0  0  0  0  0  0  0  0  0
    0.5663   -3.8387   38.3993 C   0  0  0  0  0  0  0  0  0  0  0  0
    1.7019   -4.4217   38.9139 C   0  0  0  0  0  0  0  0  0  0  0  0
    3.0969   -4.0088   38.0158 S   0  0  0  0  0  0  0  0  0  0  0  0
    2.1530   -1.8433   34.7895 N   0  0  0  0  0  0  0  0  0  0  0  0
    1.6398    0.2064   32.5882 C   0  0  0  0  0  0  0  0  0  0  0  0
    2.4547    1.2074   31.7548 C   0  0  0  0  0  0  0  0  0  0  0  0
    3.7338    0.4669   32.1908 C   0  0  0  0  0  0  0  0  0  0  0  0
    2.3900   -3.1722   29.5233 C   0  0  0  0  0  0  0  0  0  0  0  0
    3.1286   -3.4265   27.8525 S   0  0  0  0  0  0  0  0  0  0  0  0
    3.1060   -4.4813   30.5562 Cl  0  0  0  0  0  0  0  0  0  0  0  0
    0.8281   -3.1523   29.4729 C   0  0  0  0  0  0  0  0  0  0  0  0
    0.1573   -4.3782   29.9009 N   0  0  0  0  0  0  0  0  0  0  0  0
   -0.0663   -4.8207   31.1938 C   0  0  0  0  0  0  0  0  0  0  0  0
    0.0492   -4.0398   32.2927 C   0  0  0  0  0  0  0  0  0  0  0  0
   -0.0930   -4.5439   33.6462 C   0  0  0  0  0  0  0  0  0  0  0  0
   -0.4273   -5.8318   33.8434 C   0  0  0  0  0  0  0  0  0  0  0  0
   -0.5321   -6.4815   35.4473 S   0  0  0  0  0  0  0  0  0  0  0  0
    1.1021   -7.0848   35.5591 C   0  0  0  0  0  0  0  0  0  0  0  0
    1.8645   -7.4164   34.5321 N   0  0  0  0  0  0  0  0  0  0  0  0
    3.0540   -7.8767   35.0501 N   0  0  0  0  0  0  0  0  0  0  0  0
    2.9524   -7.7843   36.3643 C   0  0  0  0  0  0  0  0  0  0  0  0
    3.9686   -8.2163   37.2643 C   0  0  0  0  0  0  0  0  0  0  0  0
    3.9736   -8.2693   38.6436 C   0  0  0  0  0  0  0  0  0  0  0  0
    5.2122   -8.8281   39.0456 C   0  0  0  0  0  0  0  0  0  0  0  0
    5.9309   -9.0982   37.9025 C   0  0  0  0  0  0  0  0  0  0  0  0
    5.1698   -8.7205   36.8269 N   0  0  0  0  0  0  0  0  0  0  0  0
    1.7368   -7.2872   36.7546 O   0  0  0  0  0  0  0  0  0  0  0  0
   -0.6644   -6.6216   32.7126 N   0  0  0  0  0  0  0  0  0  0  0  0
   -1.1460   -7.8934   32.5652 C   0  0  0  0  0  0  0  0  0  0  0  0
   -1.1833   -8.2359   31.2974 N   0  0  0  0  0  0  0  0  0  0  0  0
   -0.7267   -7.1671   30.5683 N   0  0  0  0  0  0  0  0  0  0  0  0
   -0.4636   -6.1854   31.4110 C   0  0  0  0  0  0  0  0  0  0  0  0
    2.5734   -2.7805   31.8597 H   0  0  0  0  0  0  0  0  0  0  0  0
    4.9027   -2.5905   36.1662 H   0  0  0  0  0  0  0  0  0  0  0  0
    0.1031   -2.4961   36.6888 H   0  0  0  0  0  0  0  0  0  0  0  0
   -0.4216   -3.9745   38.8251 H   0  0  0  0  0  0  0  0  0  0  0  0
    1.7786   -5.0704   39.7762 H   0  0  0  0  0  0  0  0  0  0  0  0
    0.7250   -0.1564   32.1089 H   0  0  0  0  0  0  0  0  0  0  0  0
    1.3768    0.5928   33.5805 H   0  0  0  0  0  0  0  0  0  0  0  0
    2.2481    1.1621   30.6810 H   0  0  0  0  0  0  0  0  0  0  0  0
    2.3856    2.2503   32.0765 H   0  0  0  0  0  0  0  0  0  0  0  0
    4.4801    0.3191   31.4050 H   0  0  0  0  0  0  0  0  0  0  0  0
    4.2320    0.9468   33.0424 H   0  0  0  0  0  0  0  0  0  0  0  0
    3.0217   -2.1369   27.4839 H   0  0  0  0  0  0  0  0  0  0  0  0
    0.4874   -2.9277   28.4549 H   0  0  0  0  0  0  0  0  0  0  0  0
    0.4313   -2.3178   30.0647 H   0  0  0  0  0  0  0  0  0  0  0  0
   -0.0031   -5.0863   29.1785 H   0  0  0  0  0  0  0  0  0  0  0  0
    0.2749   -2.9820   32.2206 H   0  0  0  0  0  0  0  0  0  0  0  0
    0.0968   -3.8519   34.4601 H   0  0  0  0  0  0  0  0  0  0  0  0
    3.1638   -7.9571   39.2920 H   0  0  0  0  0  0  0  0  0  0  0  0
    5.5406   -9.0177   40.0601 H   0  0  0  0  0  0  0  0  0  0  0  0
    6.9149   -9.5260   37.7629 H   0  0  0  0  0  0  0  0  0  0  0  0
    5.4375   -8.8095   35.8543 H   0  0  0  0  0  0  0  0  0  0  0  0
   -1.4659   -8.4982   33.3964 H   0  0  0  0  0  0  0  0  0  0  0  0
  1  2  2  0
  2  3  1  0
  3  4  1  0
  4  5  1  0
  5  6  2  0
  6  7  1  0
  7  8  1  0
  8  9  1  0
  9 10  2  0
 10 11  1  0
 11 12  2  0
 12 13  1  0
  8 14  2  0
  4 15  1  0
 15 16  1  0
 16 17  1  0
  2 18  1  0
 18 19  1  0
 18 20  1  0
 18 21  1  0
 21 22  1  0
 22 23  1  0
 23 24  2  0
 24 25  1  0
 25 26  2  0
 26 27  1  0
 27 28  1  0
 28 29  2  0
 29 30  1  0
 30 31  2  0
 31 32  1  0
 32 33  2  0
 33 34  1  0
 34 35  2  0
 35 36  1  0
 31 37  1  0
 26 38  1  0
 38 39  1  0
 39 40  2  0
 40 41  1  0
 41 42  2  0
 17  4  1  0
 42 23  1  0
 14  5  1  0
 37 28  1  0
 42 38  1  0
 13  9  1  0
 36 32  1  0
  3 43  1  0
  7 44  1  0
 10 45  1  0
 11 46  1  0
 12 47  1  0
 15 48  1  0
 15 49  1  0
 16 50  1  0
 16 51  1  0
 17 52  1  0
 17 53  1  0
 19 54  1  0
 21 55  1  0
 21 56  1  0
 22 57  1  0
 24 58  1  0
 25 59  1  0
 33 60  1  0
 34 61  1  0
 35 62  1  0
 36 63  1  0
 39 64  1  0
M  END
>  <Energy>  (605) 
148.94210850855387

>  <compound_id>  (605) 
4241

>  <target_id>  (605) 
1

>  <reference_id>  (605) 
136

>  <inspiration_ids>  (605) 
[148, 136]

>  <energy_score>  (605) 
-95.71442856533676

>  <distance_score>  (605) 
1.807295376420508

>  <path>  (605) 
/opt/xchem-fragalysis-2/maxwin/BulkDock/SCRATCH/505735/C4241-P136/C4241-P136.minimised.mol

>  <scratch_subdir>  (605) 
/opt/xchem-fragalysis-2/maxwin/BulkDock/SCRATCH/505735/C4241-P136

>  <fragmenstein_runtime>  (605) 
10.883374452590942

>  <fragmenstein_outcome>  (605) 
too moved

>  <fragmenstein_mode>  (605) 
expansion

>  <fragmenstein_error>  (605) 


$$$$
C2644-P148
     RDKit          3D

 52 57  0  0  0  0  0  0  0  0999 V2000
    5.2751   -1.8712   35.4487 O   0  0  0  0  0  0  0  0  0  0  0  0
    4.9824   -2.3983   34.4053 C   0  0  0  0  0  0  0  0  0  0  0  0
    4.6291   -1.5300   33.1707 C   0  0  0  0  0  0  0  0  0  0  0  0
    6.0720   -0.5253   32.6905 S   0  0  0  0  0  0  0  0  0  0  0  0
    3.2479   -0.4791   33.5721 Cl  0  0  0  0  0  0  0  0  0  0  0  0
    4.9815   -3.7899   34.0275 N   0  0  0  0  0  0  0  0  0  0  0  0
    5.4625   -5.0369   34.7914 C   0  0  0  0  0  0  0  0  0  0  0  0
    5.1590   -5.1105   36.2692 C   0  0  0  0  0  0  0  0  0  0  0  0
    5.9460   -5.6023   37.3517 C   0  0  0  0  0  0  0  0  0  0  0  0
    5.2838   -5.5028   38.5625 C   0  0  0  0  0  0  0  0  0  0  0  0
    3.7211   -4.8164   38.3859 S   0  0  0  0  0  0  0  0  0  0  0  0
    3.9496   -4.6689   36.7239 C   0  0  0  0  0  0  0  0  0  0  0  0
    2.9910   -4.1218   35.7526 C   0  0  0  0  0  0  0  0  0  0  0  0
    3.5915   -4.4182   34.3149 C   0  0  0  0  0  0  0  0  0  0  0  0
    2.7262   -3.8273   33.2153 N   0  0  0  0  0  0  0  0  0  0  0  0
    1.3550   -4.1401   33.1976 C   0  0  0  0  0  0  0  0  0  0  0  0
    0.5187   -3.5749   34.1026 C   0  0  0  0  0  0  0  0  0  0  0  0
   -0.4662   -4.4153   34.7841 C   0  0  0  0  0  0  0  0  0  0  0  0
   -0.6365   -5.6784   34.3462 C   0  0  0  0  0  0  0  0  0  0  0  0
   -1.0548   -6.9407   35.4610 S   0  0  0  0  0  0  0  0  0  0  0  0
    0.6134   -7.3795   35.8299 C   0  0  0  0  0  0  0  0  0  0  0  0
    1.5735   -7.4230   34.9228 N   0  0  0  0  0  0  0  0  0  0  0  0
    2.7212   -7.8014   35.5703 N   0  0  0  0  0  0  0  0  0  0  0  0
    2.3999   -7.9936   36.8395 C   0  0  0  0  0  0  0  0  0  0  0  0
    3.2984   -8.5522   37.7967 C   0  0  0  0  0  0  0  0  0  0  0  0
    4.6513   -8.8160   37.6901 C   0  0  0  0  0  0  0  0  0  0  0  0
    5.0706   -9.4356   38.8911 C   0  0  0  0  0  0  0  0  0  0  0  0
    3.9585   -9.5608   39.6898 C   0  0  0  0  0  0  0  0  0  0  0  0
    2.8868   -9.0266   39.0186 N   0  0  0  0  0  0  0  0  0  0  0  0
    1.0669   -7.7259   37.0747 O   0  0  0  0  0  0  0  0  0  0  0  0
   -0.1384   -6.0090   33.0869 N   0  0  0  0  0  0  0  0  0  0  0  0
   -0.3796   -7.0617   32.2478 C   0  0  0  0  0  0  0  0  0  0  0  0
    0.3347   -6.9336   31.1524 N   0  0  0  0  0  0  0  0  0  0  0  0
    1.1402   -5.8211   31.3038 N   0  0  0  0  0  0  0  0  0  0  0  0
    0.8347   -5.2574   32.4551 C   0  0  0  0  0  0  0  0  0  0  0  0
    4.3601   -2.1372   32.3044 H   0  0  0  0  0  0  0  0  0  0  0  0
    6.9740   -1.5101   32.7977 H   0  0  0  0  0  0  0  0  0  0  0  0
    6.5542   -4.8955   34.7492 H   0  0  0  0  0  0  0  0  0  0  0  0
    5.3265   -5.9805   34.2421 H   0  0  0  0  0  0  0  0  0  0  0  0
    6.9471   -6.0067   37.2617 H   0  0  0  0  0  0  0  0  0  0  0  0
    5.6398   -5.7993   39.5400 H   0  0  0  0  0  0  0  0  0  0  0  0
    2.8363   -3.0500   35.9132 H   0  0  0  0  0  0  0  0  0  0  0  0
    2.0402   -4.6387   35.8892 H   0  0  0  0  0  0  0  0  0  0  0  0
    3.5133   -5.4940   34.0820 H   0  0  0  0  0  0  0  0  0  0  0  0
    3.1201   -4.1624   32.3311 H   0  0  0  0  0  0  0  0  0  0  0  0
    0.8345   -2.6966   34.6643 H   0  0  0  0  0  0  0  0  0  0  0  0
   -0.7740   -4.0930   35.7765 H   0  0  0  0  0  0  0  0  0  0  0  0
    5.2721   -8.5914   36.8325 H   0  0  0  0  0  0  0  0  0  0  0  0
    6.0689   -9.7734   39.1390 H   0  0  0  0  0  0  0  0  0  0  0  0
    3.8268   -9.9977   40.6716 H   0  0  0  0  0  0  0  0  0  0  0  0
    1.9268   -9.0548   39.3446 H   0  0  0  0  0  0  0  0  0  0  0  0
   -1.0831   -7.8527   32.4645 H   0  0  0  0  0  0  0  0  0  0  0  0
  1  2  2  0
  2  3  1  0
  3  4  1  0
  3  5  1  0
  2  6  1  0
  6  7  1  0
  7  8  1  0
  8  9  1  0
  9 10  2  0
 10 11  1  0
 11 12  1  0
 12 13  1  0
 13 14  1  0
 14 15  1  0
 15 16  1  0
 16 17  2  0
 17 18  1  0
 18 19  2  0
 19 20  1  0
 20 21  1  0
 21 22  2  0
 22 23  1  0
 23 24  2  0
 24 25  1  0
 25 26  2  0
 26 27  1  0
 27 28  2  0
 28 29  1  0
 24 30  1  0
 19 31  1  0
 31 32  1  0
 32 33  2  0
 33 34  1  0
 34 35  2  0
 14  6  1  0
 35 16  1  0
 12  8  2  0
 30 21  1  0
 35 31  1  0
 29 25  1  0
  3 36  1  0
  4 37  1  0
  7 38  1  0
  7 39  1  0
  9 40  1  0
 10 41  1  0
 13 42  1  0
 13 43  1  0
 14 44  1  0
 15 45  1  0
 17 46  1  0
 18 47  1  0
 26 48  1  0
 27 49  1  0
 28 50  1  0
 29 51  1  0
 32 52  1  0
M  END
>  <Energy>  (606) 
153.57153321110144

>  <compound_id>  (606) 
2644

>  <target_id>  (606) 
1

>  <reference_id>  (606) 
148

>  <inspiration_ids>  (606) 
[148, 140]

>  <energy_score>  (606) 
11.347561082671675

>  <distance_score>  (606) 
2.7583730285215844

>  <path>  (606) 
/opt/xchem-fragalysis-2/maxwin/BulkDock/SCRATCH/505735/C2644-P148/C2644-P148.minimised.mol

>  <scratch_subdir>  (606) 
/opt/xchem-fragalysis-2/maxwin/BulkDock/SCRATCH/505735/C2644-P148

>  <fragmenstein_runtime>  (606) 
5.143034934997559

>  <fragmenstein_outcome>  (606) 
too moved

>  <fragmenstein_mode>  (606) 
expansion

>  <fragmenstein_error>  (606) 


$$$$
C2644-P140
     RDKit          3D

 52 57  0  0  0  0  0  0  0  0999 V2000
    5.5877   -1.7519   35.3366 O   0  0  0  0  0  0  0  0  0  0  0  0
    5.2466   -2.2954   34.3165 C   0  0  0  0  0  0  0  0  0  0  0  0
    4.9257   -1.4494   33.0577 C   0  0  0  0  0  0  0  0  0  0  0  0
    6.4219   -0.5599   32.5164 S   0  0  0  0  0  0  0  0  0  0  0  0
    3.6236   -0.2978   33.4435 Cl  0  0  0  0  0  0  0  0  0  0  0  0
    5.1560   -3.6967   33.9876 N   0  0  0  0  0  0  0  0  0  0  0  0
    5.5733   -4.9419   34.7864 C   0  0  0  0  0  0  0  0  0  0  0  0
    5.2848   -4.9531   36.2686 C   0  0  0  0  0  0  0  0  0  0  0  0
    6.0526   -5.4671   37.3549 C   0  0  0  0  0  0  0  0  0  0  0  0
    5.4267   -5.2652   38.5719 C   0  0  0  0  0  0  0  0  0  0  0  0
    3.9192   -4.4634   38.3956 S   0  0  0  0  0  0  0  0  0  0  0  0
    4.1157   -4.4118   36.7239 C   0  0  0  0  0  0  0  0  0  0  0  0
    3.1728   -3.8420   35.7473 C   0  0  0  0  0  0  0  0  0  0  0  0
    3.7353   -4.2298   34.3169 C   0  0  0  0  0  0  0  0  0  0  0  0
    2.8936   -3.6333   33.2079 N   0  0  0  0  0  0  0  0  0  0  0  0
    1.5194   -3.9328   33.1882 C   0  0  0  0  0  0  0  0  0  0  0  0
    0.6758   -3.3268   34.0581 C   0  0  0  0  0  0  0  0  0  0  0  0
   -0.3701   -4.1105   34.7128 C   0  0  0  0  0  0  0  0  0  0  0  0
   -0.5654   -5.3795   34.3026 C   0  0  0  0  0  0  0  0  0  0  0  0
   -1.0637   -6.5922   35.4377 S   0  0  0  0  0  0  0  0  0  0  0  0
    0.5733   -7.0098   35.9421 C   0  0  0  0  0  0  0  0  0  0  0  0
    1.5948   -7.1123   35.1074 N   0  0  0  0  0  0  0  0  0  0  0  0
    2.6938   -7.4464   35.8582 N   0  0  0  0  0  0  0  0  0  0  0  0
    2.2800   -7.5531   37.1125 C   0  0  0  0  0  0  0  0  0  0  0  0
    3.1094   -8.0535   38.1609 C   0  0  0  0  0  0  0  0  0  0  0  0
    2.8235   -8.3178   39.4844 C   0  0  0  0  0  0  0  0  0  0  0  0
    3.9832   -8.8879   40.0693 C   0  0  0  0  0  0  0  0  0  0  0  0
    4.9470   -8.9591   39.0894 C   0  0  0  0  0  0  0  0  0  0  0  0
    4.4097   -8.4443   37.9395 N   0  0  0  0  0  0  0  0  0  0  0  0
    0.9402   -7.2614   37.2361 O   0  0  0  0  0  0  0  0  0  0  0  0
   -0.0195   -5.7697   33.0813 N   0  0  0  0  0  0  0  0  0  0  0  0
   -0.2424   -6.8507   32.2739 C   0  0  0  0  0  0  0  0  0  0  0  0
    0.5483   -6.7959   31.2257 N   0  0  0  0  0  0  0  0  0  0  0  0
    1.3716   -5.6973   31.3746 N   0  0  0  0  0  0  0  0  0  0  0  0
    1.0050   -5.0693   32.4726 C   0  0  0  0  0  0  0  0  0  0  0  0
    4.6017   -2.0674   32.2184 H   0  0  0  0  0  0  0  0  0  0  0  0
    7.2572   -1.6005   32.6344 H   0  0  0  0  0  0  0  0  0  0  0  0
    6.6707   -4.8651   34.7283 H   0  0  0  0  0  0  0  0  0  0  0  0
    5.3776   -5.8928   34.2704 H   0  0  0  0  0  0  0  0  0  0  0  0
    7.0223   -5.9419   37.2651 H   0  0  0  0  0  0  0  0  0  0  0  0
    5.7786   -5.5431   39.5565 H   0  0  0  0  0  0  0  0  0  0  0  0
    2.1922   -4.2918   35.9144 H   0  0  0  0  0  0  0  0  0  0  0  0
    3.0839   -2.7574   35.8658 H   0  0  0  0  0  0  0  0  0  0  0  0
    3.5925   -5.3084   34.1292 H   0  0  0  0  0  0  0  0  0  0  0  0
    3.2815   -3.9946   32.3314 H   0  0  0  0  0  0  0  0  0  0  0  0
    0.9968   -2.4408   34.6040 H   0  0  0  0  0  0  0  0  0  0  0  0
   -0.7125   -3.7513   35.6810 H   0  0  0  0  0  0  0  0  0  0  0  0
    1.8698   -8.1545   39.9724 H   0  0  0  0  0  0  0  0  0  0  0  0
    4.0909   -9.2231   41.0933 H   0  0  0  0  0  0  0  0  0  0  0  0
    5.9628   -9.3310   39.1123 H   0  0  0  0  0  0  0  0  0  0  0  0
    4.8878   -8.3678   37.0517 H   0  0  0  0  0  0  0  0  0  0  0  0
   -0.9832   -7.6113   32.4780 H   0  0  0  0  0  0  0  0  0  0  0  0
  1  2  2  0
  2  3  1  0
  3  4  1  0
  3  5  1  0
  2  6  1  0
  6  7  1  0
  7  8  1  0
  8  9  1  0
  9 10  2  0
 10 11  1  0
 11 12  1  0
 12 13  1  0
 13 14  1  0
 14 15  1  0
 15 16  1  0
 16 17  2  0
 17 18  1  0
 18 19  2  0
 19 20  1  0
 20 21  1  0
 21 22  2  0
 22 23  1  0
 23 24  2  0
 24 25  1  0
 25 26  2  0
 26 27  1  0
 27 28  2  0
 28 29  1  0
 24 30  1  0
 19 31  1  0
 31 32  1  0
 32 33  2  0
 33 34  1  0
 34 35  2  0
 14  6  1  0
 35 16  1  0
 12  8  2  0
 30 21  1  0
 35 31  1  0
 29 25  1  0
  3 36  1  0
  4 37  1  0
  7 38  1  0
  7 39  1  0
  9 40  1  0
 10 41  1  0
 13 42  1  0
 13 43  1  0
 14 44  1  0
 15 45  1  0
 17 46  1  0
 18 47  1  0
 26 48  1  0
 27 49  1  0
 28 50  1  0
 29 51  1  0
 32 52  1  0
M  END
>  <Energy>  (607) 
149.38568756383265

>  <compound_id>  (607) 
2644

>  <target_id>  (607) 
1

>  <reference_id>  (607) 
140

>  <inspiration_ids>  (607) 
[148, 140]

>  <energy_score>  (607) 
7.161715435402286

>  <distance_score>  (607) 
2.913529742757664

>  <path>  (607) 
/opt/xchem-fragalysis-2/maxwin/BulkDock/SCRATCH/505735/C2644-P140/C2644-P140.minimised.mol

>  <scratch_subdir>  (607) 
/opt/xchem-fragalysis-2/maxwin/BulkDock/SCRATCH/505735/C2644-P140

>  <fragmenstein_runtime>  (607) 
5.2214438915252686

>  <fragmenstein_outcome>  (607) 
too moved

>  <fragmenstein_mode>  (607) 
expansion

>  <fragmenstein_error>  (607) 


$$$$
C4243-P148
     RDKit          3D

 53 57  0  0  0  0  0  0  0  0999 V2000
   -1.8653   -7.6830   30.8061 O   0  0  0  0  0  0  0  0  0  0  0  0
   -0.4978   -7.3431   31.0996 S   0  0  0  0  0  0  0  0  0  0  0  0
    0.5522   -8.0682   30.4553 O   0  0  0  0  0  0  0  0  0  0  0  0
   -0.2510   -5.7528   30.7275 N   0  0  0  0  0  0  0  0  0  0  0  0
    1.0071   -5.0646   31.0762 C   0  0  0  0  0  0  0  0  0  0  0  0
    1.2799   -3.8908   30.1243 C   0  0  0  0  0  0  0  0  0  0  0  0
    2.1268   -2.8564   30.7680 N   0  0  0  0  0  0  0  0  0  0  0  0
    1.3106   -2.1087   31.7619 N   0  0  0  0  0  0  0  0  0  0  0  0
    1.2486   -0.7173   31.2875 C   0  0  0  0  0  0  0  0  0  0  0  0
    1.4301   -0.8453   29.8651 N   0  0  0  0  0  0  0  0  0  0  0  0
    1.6017    0.4010   29.1190 C   0  0  0  0  0  0  0  0  0  0  0  0
    0.3782    0.6366   27.7532 S   0  0  0  0  0  0  0  0  0  0  0  0
   -1.0710    0.2221   28.5772 C   0  0  0  0  0  0  0  0  0  0  0  0
   -1.7740    1.1132   29.2267 N   0  0  0  0  0  0  0  0  0  0  0  0
   -2.2997    0.4540   30.3142 N   0  0  0  0  0  0  0  0  0  0  0  0
   -1.9505   -0.7994   30.2019 C   0  0  0  0  0  0  0  0  0  0  0  0
   -1.9530   -1.7132   31.3087 C   0  0  0  0  0  0  0  0  0  0  0  0
   -1.7044   -3.0611   31.3052 C   0  0  0  0  0  0  0  0  0  0  0  0
   -1.4870   -3.4887   32.6384 C   0  0  0  0  0  0  0  0  0  0  0  0
   -1.6756   -2.3969   33.4428 C   0  0  0  0  0  0  0  0  0  0  0  0
   -2.0257   -1.3501   32.6313 N   0  0  0  0  0  0  0  0  0  0  0  0
   -1.3264   -1.0448   29.0078 O   0  0  0  0  0  0  0  0  0  0  0  0
    3.0035    0.4772   28.4821 C   0  0  0  0  0  0  0  0  0  0  0  0
    3.4077   -0.8112   27.7436 C   0  0  0  0  0  0  0  0  0  0  0  0
    2.9219   -2.0995   28.4184 C   0  0  0  0  0  0  0  0  0  0  0  0
    2.5381   -1.7921   29.8442 C   0  0  0  0  0  0  0  0  0  0  0  0
   -0.4435   -7.4680   32.8163 C   0  0  0  0  0  0  0  0  0  0  0  0
   -1.4004   -7.8320   33.7281 C   0  0  0  0  0  0  0  0  0  0  0  0
   -0.9140   -7.5980   35.0313 C   0  0  0  0  0  0  0  0  0  0  0  0
    0.3077   -7.0893   35.1454 N   0  0  0  0  0  0  0  0  0  0  0  0
    0.9198   -6.8932   33.6454 S   0  0  0  0  0  0  0  0  0  0  0  0
   -1.0644   -5.2338   31.0120 H   0  0  0  0  0  0  0  0  0  0  0  0
    1.8547   -5.7523   31.0191 H   0  0  0  0  0  0  0  0  0  0  0  0
    0.9326   -4.6898   32.0972 H   0  0  0  0  0  0  0  0  0  0  0  0
    1.8232   -4.3219   29.2735 H   0  0  0  0  0  0  0  0  0  0  0  0
    0.3710   -3.4615   29.6972 H   0  0  0  0  0  0  0  0  0  0  0  0
    1.7469   -2.1219   32.6845 H   0  0  0  0  0  0  0  0  0  0  0  0
    0.3177   -0.2285   31.5724 H   0  0  0  0  0  0  0  0  0  0  0  0
    2.0606   -0.1384   31.7509 H   0  0  0  0  0  0  0  0  0  0  0  0
    1.4771    1.2693   29.7777 H   0  0  0  0  0  0  0  0  0  0  0  0
   -1.6230   -3.5861   30.3670 H   0  0  0  0  0  0  0  0  0  0  0  0
   -1.2400   -4.4675   33.0208 H   0  0  0  0  0  0  0  0  0  0  0  0
   -1.6291   -2.2826   34.5179 H   0  0  0  0  0  0  0  0  0  0  0  0
   -2.1989   -0.4052   32.9449 H   0  0  0  0  0  0  0  0  0  0  0  0
    3.7362    0.6573   29.2815 H   0  0  0  0  0  0  0  0  0  0  0  0
    3.1009    1.3385   27.8089 H   0  0  0  0  0  0  0  0  0  0  0  0
    4.5022   -0.8334   27.6690 H   0  0  0  0  0  0  0  0  0  0  0  0
    3.0455   -0.7769   26.7125 H   0  0  0  0  0  0  0  0  0  0  0  0
    2.0650   -2.4944   27.8629 H   0  0  0  0  0  0  0  0  0  0  0  0
    3.7082   -2.8618   28.3714 H   0  0  0  0  0  0  0  0  0  0  0  0
    3.4342   -1.3520   30.3133 H   0  0  0  0  0  0  0  0  0  0  0  0
   -2.3682   -8.2401   33.4726 H   0  0  0  0  0  0  0  0  0  0  0  0
   -1.4411   -7.8143   35.9488 H   0  0  0  0  0  0  0  0  0  0  0  0
  1  2  2  0
  2  3  2  0
  2  4  1  0
  4  5  1  0
  5  6  1  0
  6  7  1  0
  7  8  1  0
  8  9  1  0
  9 10  1  0
 10 11  1  0
 11 12  1  0
 12 13  1  0
 13 14  2  0
 14 15  1  0
 15 16  2  0
 16 17  1  0
 17 18  2  0
 18 19  1  0
 19 20  2  0
 20 21  1  0
 16 22  1  0
 11 23  1  0
 23 24  1  0
 24 25  1  0
 25 26  1  0
  2 27  1  0
 27 28  2  0
 28 29  1  0
 29 30  2  0
 30 31  1  0
 26  7  1  0
 31 27  1  0
 26 10  1  0
 22 13  1  0
 21 17  1  0
  4 32  1  0
  5 33  1  0
  5 34  1  0
  6 35  1  0
  6 36  1  0
  8 37  1  0
  9 38  1  0
  9 39  1  0
 11 40  1  0
 18 41  1  0
 19 42  1  0
 20 43  1  0
 21 44  1  0
 23 45  1  0
 23 46  1  0
 24 47  1  0
 24 48  1  0
 25 49  1  0
 25 50  1  0
 26 51  1  0
 28 52  1  0
 29 53  1  0
M  END
>  <Energy>  (608) 
-21.654846618556736

>  <compound_id>  (608) 
4243

>  <target_id>  (608) 
1

>  <reference_id>  (608) 
148

>  <inspiration_ids>  (608) 
[148, 142]

>  <energy_score>  (608) 
-59.32688244555209

>  <distance_score>  (608) 
3.274646345269679

>  <path>  (608) 
/opt/xchem-fragalysis-2/maxwin/BulkDock/SCRATCH/505735/C4243-P148/C4243-P148.minimised.mol

>  <scratch_subdir>  (608) 
/opt/xchem-fragalysis-2/maxwin/BulkDock/SCRATCH/505735/C4243-P148

>  <fragmenstein_runtime>  (608) 
8.377009391784668

>  <fragmenstein_outcome>  (608) 
too moved

>  <fragmenstein_mode>  (608) 
expansion

>  <fragmenstein_error>  (608) 


$$$$
C4243-P142
     RDKit          3D

 53 57  0  0  0  0  0  0  0  0999 V2000
    0.0261   -6.3855   35.2071 O   0  0  0  0  0  0  0  0  0  0  0  0
    0.7780   -6.4563   33.9767 S   0  0  0  0  0  0  0  0  0  0  0  0
    2.0512   -7.1344   33.8934 O   0  0  0  0  0  0  0  0  0  0  0  0
    0.9399   -4.8915   33.4545 N   0  0  0  0  0  0  0  0  0  0  0  0
    1.9543   -4.4920   32.4699 C   0  0  0  0  0  0  0  0  0  0  0  0
    1.3336   -3.5008   31.4631 C   0  0  0  0  0  0  0  0  0  0  0  0
    2.2481   -2.5532   30.7932 N   0  0  0  0  0  0  0  0  0  0  0  0
    2.6391   -1.5091   31.7172 N   0  0  0  0  0  0  0  0  0  0  0  0
    1.6459   -0.4568   31.6034 C   0  0  0  0  0  0  0  0  0  0  0  0
    1.1502   -0.4817   30.2414 N   0  0  0  0  0  0  0  0  0  0  0  0
    1.5758    0.7205   29.4979 C   0  0  0  0  0  0  0  0  0  0  0  0
    0.5121    1.3401   28.1132 S   0  0  0  0  0  0  0  0  0  0  0  0
   -0.9630    0.5085   28.4392 C   0  0  0  0  0  0  0  0  0  0  0  0
   -1.3913   -0.4601   27.6655 N   0  0  0  0  0  0  0  0  0  0  0  0
   -1.8914   -1.4096   28.5159 N   0  0  0  0  0  0  0  0  0  0  0  0
   -1.8319   -0.8935   29.7283 C   0  0  0  0  0  0  0  0  0  0  0  0
   -1.8600   -1.7172   30.9112 C   0  0  0  0  0  0  0  0  0  0  0  0
   -1.8226   -1.4080   32.2555 C   0  0  0  0  0  0  0  0  0  0  0  0
   -1.7106   -2.6122   32.9932 C   0  0  0  0  0  0  0  0  0  0  0  0
   -1.6638   -3.6349   32.0779 C   0  0  0  0  0  0  0  0  0  0  0  0
   -1.7703   -3.0921   30.8248 N   0  0  0  0  0  0  0  0  0  0  0  0
   -1.4653    0.4250   29.7080 O   0  0  0  0  0  0  0  0  0  0  0  0
    3.0572    0.6721   29.0804 C   0  0  0  0  0  0  0  0  0  0  0  0
    3.5409   -0.6962   28.5958 C   0  0  0  0  0  0  0  0  0  0  0  0
    2.4287   -1.7170   28.4769 C   0  0  0  0  0  0  0  0  0  0  0  0
    1.5471   -1.7984   29.7160 C   0  0  0  0  0  0  0  0  0  0  0  0
   -0.2795   -7.2115   32.8398 C   0  0  0  0  0  0  0  0  0  0  0  0
   -1.4581   -7.8790   32.9874 C   0  0  0  0  0  0  0  0  0  0  0  0
   -2.0350   -8.0497   31.7263 C   0  0  0  0  0  0  0  0  0  0  0  0
   -1.3436   -7.6887   30.6511 N   0  0  0  0  0  0  0  0  0  0  0  0
    0.0521   -7.0116   31.1870 S   0  0  0  0  0  0  0  0  0  0  0  0
    0.7063   -4.2121   34.1804 H   0  0  0  0  0  0  0  0  0  0  0  0
    2.7791   -4.0280   33.0209 H   0  0  0  0  0  0  0  0  0  0  0  0
    2.3657   -5.3441   31.9288 H   0  0  0  0  0  0  0  0  0  0  0  0
    0.6192   -2.9039   32.0136 H   0  0  0  0  0  0  0  0  0  0  0  0
    0.8103   -4.0925   30.7053 H   0  0  0  0  0  0  0  0  0  0  0  0
    2.7477   -1.7989   32.6873 H   0  0  0  0  0  0  0  0  0  0  0  0
    0.8222   -0.6433   32.2982 H   0  0  0  0  0  0  0  0  0  0  0  0
    2.0859    0.4972   31.9156 H   0  0  0  0  0  0  0  0  0  0  0  0
    1.4748    1.5749   30.1802 H   0  0  0  0  0  0  0  0  0  0  0  0
   -1.8523   -0.4062   32.6638 H   0  0  0  0  0  0  0  0  0  0  0  0
   -1.6646   -2.7193   34.0702 H   0  0  0  0  0  0  0  0  0  0  0  0
   -1.5435   -4.6957   32.2169 H   0  0  0  0  0  0  0  0  0  0  0  0
   -1.7144   -3.5759   29.9333 H   0  0  0  0  0  0  0  0  0  0  0  0
    3.6732    0.9471   29.9480 H   0  0  0  0  0  0  0  0  0  0  0  0
    3.2849    1.4333   28.3235 H   0  0  0  0  0  0  0  0  0  0  0  0
    4.3137   -1.0682   29.2800 H   0  0  0  0  0  0  0  0  0  0  0  0
    4.0366   -0.5837   27.6239 H   0  0  0  0  0  0  0  0  0  0  0  0
    1.8023   -1.4438   27.6214 H   0  0  0  0  0  0  0  0  0  0  0  0
    2.8506   -2.7007   28.2347 H   0  0  0  0  0  0  0  0  0  0  0  0
    0.6497   -2.3426   29.4043 H   0  0  0  0  0  0  0  0  0  0  0  0
   -1.9039   -8.1138   33.9449 H   0  0  0  0  0  0  0  0  0  0  0  0
   -3.0342   -8.4219   31.5757 H   0  0  0  0  0  0  0  0  0  0  0  0
  1  2  2  0
  2  3  2  0
  2  4  1  0
  4  5  1  0
  5  6  1  0
  6  7  1  0
  7  8  1  0
  8  9  1  0
  9 10  1  0
 10 11  1  0
 11 12  1  0
 12 13  1  0
 13 14  2  0
 14 15  1  0
 15 16  2  0
 16 17  1  0
 17 18  2  0
 18 19  1  0
 19 20  2  0
 20 21  1  0
 16 22  1  0
 11 23  1  0
 23 24  1  0
 24 25  1  0
 25 26  1  0
  2 27  1  0
 27 28  2  0
 28 29  1  0
 29 30  2  0
 30 31  1  0
 26  7  1  0
 31 27  1  0
 26 10  1  0
 22 13  1  0
 21 17  1  0
  4 32  1  0
  5 33  1  0
  5 34  1  0
  6 35  1  0
  6 36  1  0
  8 37  1  0
  9 38  1  0
  9 39  1  0
 11 40  1  0
 18 41  1  0
 19 42  1  0
 20 43  1  0
 21 44  1  0
 23 45  1  0
 23 46  1  0
 24 47  1  0
 24 48  1  0
 25 49  1  0
 25 50  1  0
 26 51  1  0
 28 52  1  0
 29 53  1  0
M  END
>  <Energy>  (609) 
-24.561835332556793

>  <compound_id>  (609) 
4243

>  <target_id>  (609) 
1

>  <reference_id>  (609) 
142

>  <inspiration_ids>  (609) 
[148, 142]

>  <energy_score>  (609) 
-62.23387115955194

>  <distance_score>  (609) 
2.8580085673986453

>  <path>  (609) 
/opt/xchem-fragalysis-2/maxwin/BulkDock/SCRATCH/505735/C4243-P142/C4243-P142.minimised.mol

>  <scratch_subdir>  (609) 
/opt/xchem-fragalysis-2/maxwin/BulkDock/SCRATCH/505735/C4243-P142

>  <fragmenstein_runtime>  (609) 
8.03398585319519

>  <fragmenstein_outcome>  (609) 
too moved

>  <fragmenstein_mode>  (609) 
expansion

>  <fragmenstein_error>  (609) 


$$$$
C4243-P148
     RDKit          2D

  0  0  0  0  0  0  0  0  0  0999 V2000
M  END
>  <compound_id>  (610) 
4243

>  <target_id>  (610) 
1

>  <reference_id>  (610) 
148

>  <inspiration_ids>  (610) 
[148, 147]

>  <energy_score>  (610) 
nan

>  <distance_score>  (610) 
nan

>  <path>  (610) 
/opt/xchem-fragalysis-2/maxwin/BulkDock/SCRATCH/505735/C4243-P148/C4243-P148.minimised.mol

>  <scratch_subdir>  (610) 
/opt/xchem-fragalysis-2/maxwin/BulkDock/SCRATCH/505735/C4243-P148

>  <fragmenstein_runtime>  (610) 
0.7808883190155029

>  <fragmenstein_outcome>  (610) 
too distant

>  <fragmenstein_mode>  (610) 
expansion

>  <fragmenstein_error>  (610) 
DistanceError: hit1

$$$$
C4245-P148
     RDKit          3D

 58 62  0  0  0  0  0  0  0  0999 V2000
   -0.2860   -7.4876   41.3178 O   0  0  0  0  0  0  0  0  0  0  0  0
    0.5124   -7.1262   40.1704 S   0  0  0  0  0  0  0  0  0  0  0  0
    1.9377   -7.3608   40.1153 O   0  0  0  0  0  0  0  0  0  0  0  0
   -0.1748   -7.8650   38.8111 N   0  0  0  0  0  0  0  0  0  0  0  0
    0.2180   -7.5178   37.3861 C   0  0  0  0  0  0  0  0  0  0  0  0
   -0.6225   -6.4026   36.5996 C   0  0  0  0  0  0  0  0  0  0  0  0
   -1.3404   -6.5043   35.2750 N   0  0  0  0  0  0  0  0  0  0  0  0
   -1.2874   -7.7676   34.6322 N   0  0  0  0  0  0  0  0  0  0  0  0
   -0.1382   -7.6888   33.7556 C   0  0  0  0  0  0  0  0  0  0  0  0
    0.0257   -6.3203   33.3824 N   0  0  0  0  0  0  0  0  0  0  0  0
    1.3481   -5.7347   33.2982 C   0  0  0  0  0  0  0  0  0  0  0  0
    2.2212   -5.3189   34.8440 S   0  0  0  0  0  0  0  0  0  0  0  0
    2.9456   -6.7979   35.3067 C   0  0  0  0  0  0  0  0  0  0  0  0
    2.9670   -7.8747   34.5592 N   0  0  0  0  0  0  0  0  0  0  0  0
    3.6995   -8.8074   35.2277 N   0  0  0  0  0  0  0  0  0  0  0  0
    4.0148   -8.2733   36.3932 C   0  0  0  0  0  0  0  0  0  0  0  0
    4.7151   -8.9783   37.4035 C   0  0  0  0  0  0  0  0  0  0  0  0
    4.8232   -8.7292   38.7543 C   0  0  0  0  0  0  0  0  0  0  0  0
    5.5991   -9.7725   39.3154 C   0  0  0  0  0  0  0  0  0  0  0  0
    5.9572  -10.6185   38.2900 C   0  0  0  0  0  0  0  0  0  0  0  0
    5.4156  -10.1278   37.1329 N   0  0  0  0  0  0  0  0  0  0  0  0
    3.5593   -6.9883   36.5093 O   0  0  0  0  0  0  0  0  0  0  0  0
    1.1707   -4.4278   32.5035 C   0  0  0  0  0  0  0  0  0  0  0  0
   -0.0012   -3.5670   32.9900 C   0  0  0  0  0  0  0  0  0  0  0  0
   -0.6406   -4.1019   34.2798 C   0  0  0  0  0  0  0  0  0  0  0  0
   -0.9555   -5.5955   34.1565 C   0  0  0  0  0  0  0  0  0  0  0  0
    0.2075   -5.4453   39.7601 C   0  0  0  0  0  0  0  0  0  0  0  0
   -1.0702   -4.9341   39.9467 C   0  0  0  0  0  0  0  0  0  0  0  0
   -1.4724   -3.9028   39.1149 C   0  0  0  0  0  0  0  0  0  0  0  0
   -0.5975   -3.4344   38.1417 C   0  0  0  0  0  0  0  0  0  0  0  0
   -1.0349   -2.7253   37.0752 O   0  0  0  0  0  0  0  0  0  0  0  0
    0.7366   -3.7852   38.1171 C   0  0  0  0  0  0  0  0  0  0  0  0
    1.1489   -4.8166   38.9311 C   0  0  0  0  0  0  0  0  0  0  0  0
   -0.1134   -8.8827   38.9666 H   0  0  0  0  0  0  0  0  0  0  0  0
    1.2725   -7.2487   37.3920 H   0  0  0  0  0  0  0  0  0  0  0  0
    0.1579   -8.4431   36.8171 H   0  0  0  0  0  0  0  0  0  0  0  0
   -1.3807   -6.0396   37.2890 H   0  0  0  0  0  0  0  0  0  0  0  0
    0.0685   -5.5781   36.4878 H   0  0  0  0  0  0  0  0  0  0  0  0
   -1.3047   -8.6228   35.1930 H   0  0  0  0  0  0  0  0  0  0  0  0
   -0.3031   -8.2928   32.8632 H   0  0  0  0  0  0  0  0  0  0  0  0
    0.7140   -8.0251   34.3285 H   0  0  0  0  0  0  0  0  0  0  0  0
    1.9976   -6.3707   32.6931 H   0  0  0  0  0  0  0  0  0  0  0  0
    4.3728   -7.9034   39.2919 H   0  0  0  0  0  0  0  0  0  0  0  0
    5.8617   -9.8935   40.3592 H   0  0  0  0  0  0  0  0  0  0  0  0
    6.5407  -11.5299   38.2897 H   0  0  0  0  0  0  0  0  0  0  0  0
    5.5001  -10.5528   36.2177 H   0  0  0  0  0  0  0  0  0  0  0  0
    2.0948   -3.8350   32.4940 H   0  0  0  0  0  0  0  0  0  0  0  0
    0.9855   -4.6773   31.4487 H   0  0  0  0  0  0  0  0  0  0  0  0
   -0.7662   -3.5273   32.2037 H   0  0  0  0  0  0  0  0  0  0  0  0
    0.3324   -2.5343   33.1443 H   0  0  0  0  0  0  0  0  0  0  0  0
   -1.5441   -3.5227   34.4871 H   0  0  0  0  0  0  0  0  0  0  0  0
    0.0228   -3.8853   35.1153 H   0  0  0  0  0  0  0  0  0  0  0  0
   -1.8133   -5.6124   33.4798 H   0  0  0  0  0  0  0  0  0  0  0  0
   -1.7903   -5.4224   40.5986 H   0  0  0  0  0  0  0  0  0  0  0  0
   -2.4979   -3.5515   39.1602 H   0  0  0  0  0  0  0  0  0  0  0  0
   -2.0002   -2.6314   37.1327 H   0  0  0  0  0  0  0  0  0  0  0  0
    1.4084   -3.3559   37.3802 H   0  0  0  0  0  0  0  0  0  0  0  0
    2.1551   -5.2155   38.8214 H   0  0  0  0  0  0  0  0  0  0  0  0
  1  2  2  0
  2  3  2  0
  2  4  1  0
  4  5  1  0
  5  6  1  0
  6  7  1  0
  7  8  1  0
  8  9  1  0
  9 10  1  0
 10 11  1  0
 11 12  1  0
 12 13  1  0
 13 14  2  0
 14 15  1  0
 15 16  2  0
 16 17  1  0
 17 18  2  0
 18 19  1  0
 19 20  2  0
 20 21  1  0
 16 22  1  0
 11 23  1  0
 23 24  1  0
 24 25  1  0
 25 26  1  0
  2 27  1  0
 27 28  2  0
 28 29  1  0
 29 30  2  0
 30 31  1  0
 30 32  1  0
 32 33  2  0
 26  7  1  0
 33 27  1  0
 26 10  1  0
 22 13  1  0
 21 17  1  0
  4 34  1  0
  5 35  1  0
  5 36  1  0
  6 37  1  0
  6 38  1  0
  8 39  1  0
  9 40  1  0
  9 41  1  0
 11 42  1  0
 18 43  1  0
 19 44  1  0
 20 45  1  0
 21 46  1  0
 23 47  1  0
 23 48  1  0
 24 49  1  0
 24 50  1  0
 25 51  1  0
 25 52  1  0
 26 53  1  0
 28 54  1  0
 29 55  1  0
 31 56  1  0
 32 57  1  0
 33 58  1  0
M  END
>  <Energy>  (611) 
18.141354946427921

>  <compound_id>  (611) 
4245

>  <target_id>  (611) 
1

>  <reference_id>  (611) 
148

>  <inspiration_ids>  (611) 
[148, 150]

>  <energy_score>  (611) 
-39.39250069796572

>  <distance_score>  (611) 
2.347140910434603

>  <path>  (611) 
/opt/xchem-fragalysis-2/maxwin/BulkDock/SCRATCH/505735/C4245-P148/C4245-P148.minimised.mol

>  <scratch_subdir>  (611) 
/opt/xchem-fragalysis-2/maxwin/BulkDock/SCRATCH/505735/C4245-P148

>  <fragmenstein_runtime>  (611) 
3.674182891845703

>  <fragmenstein_outcome>  (611) 
too moved

>  <fragmenstein_mode>  (611) 
expansion

>  <fragmenstein_error>  (611) 


$$$$
C4245-P150
     RDKit          3D

 58 62  0  0  0  0  0  0  0  0999 V2000
   -0.8463   -8.2691   40.6154 O   0  0  0  0  0  0  0  0  0  0  0  0
    0.3344   -7.5612   40.1811 S   0  0  0  0  0  0  0  0  0  0  0  0
    1.5412   -7.5611   40.9771 O   0  0  0  0  0  0  0  0  0  0  0  0
    0.7503   -8.1373   38.6198 N   0  0  0  0  0  0  0  0  0  0  0  0
   -0.1904   -7.8885   37.4488 C   0  0  0  0  0  0  0  0  0  0  0  0
    0.5180   -7.5544   36.1118 C   0  0  0  0  0  0  0  0  0  0  0  0
   -0.3752   -7.4776   34.8408 N   0  0  0  0  0  0  0  0  0  0  0  0
   -1.2779   -6.3706   35.1296 N   0  0  0  0  0  0  0  0  0  0  0  0
   -0.5557   -5.1538   34.7140 C   0  0  0  0  0  0  0  0  0  0  0  0
    0.6912   -5.6750   34.2505 N   0  0  0  0  0  0  0  0  0  0  0  0
    1.6796   -4.9287   33.5764 C   0  0  0  0  0  0  0  0  0  0  0  0
    2.6678   -4.1877   34.9189 S   0  0  0  0  0  0  0  0  0  0  0  0
    3.3669   -5.7215   35.4774 C   0  0  0  0  0  0  0  0  0  0  0  0
    3.6737   -6.6743   34.6239 N   0  0  0  0  0  0  0  0  0  0  0  0
    4.0665   -7.7687   35.3226 N   0  0  0  0  0  0  0  0  0  0  0  0
    4.0203   -7.4289   36.5950 C   0  0  0  0  0  0  0  0  0  0  0  0
    4.4207   -8.3508   37.6017 C   0  0  0  0  0  0  0  0  0  0  0  0
    4.2787   -8.3356   38.9709 C   0  0  0  0  0  0  0  0  0  0  0  0
    4.8599   -9.5284   39.4736 C   0  0  0  0  0  0  0  0  0  0  0  0
    5.3533  -10.2347   38.4000 C   0  0  0  0  0  0  0  0  0  0  0  0
    5.0849   -9.5116   37.2697 N   0  0  0  0  0  0  0  0  0  0  0  0
    3.5545   -6.1380   36.7764 O   0  0  0  0  0  0  0  0  0  0  0  0
    1.0336   -4.3085   32.3559 C   0  0  0  0  0  0  0  0  0  0  0  0
    0.4641   -5.4956   31.5044 C   0  0  0  0  0  0  0  0  0  0  0  0
   -0.2125   -6.6739   32.3005 C   0  0  0  0  0  0  0  0  0  0  0  0
    0.4136   -6.9439   33.7067 C   0  0  0  0  0  0  0  0  0  0  0  0
   -0.0746   -5.8913   39.7922 C   0  0  0  0  0  0  0  0  0  0  0  0
   -1.3719   -5.4355   39.9896 C   0  0  0  0  0  0  0  0  0  0  0  0
   -1.8263   -4.4129   39.1708 C   0  0  0  0  0  0  0  0  0  0  0  0
   -0.9826   -3.8938   38.1937 C   0  0  0  0  0  0  0  0  0  0  0  0
   -1.4337   -3.0951   37.1980 O   0  0  0  0  0  0  0  0  0  0  0  0
    0.3541   -4.2227   38.1264 C   0  0  0  0  0  0  0  0  0  0  0  0
    0.8194   -5.2331   38.9333 C   0  0  0  0  0  0  0  0  0  0  0  0
    0.8645   -9.1534   38.6860 H   0  0  0  0  0  0  0  0  0  0  0  0
   -0.7477   -8.7897   37.2434 H   0  0  0  0  0  0  0  0  0  0  0  0
   -0.8892   -7.0882   37.6771 H   0  0  0  0  0  0  0  0  0  0  0  0
    1.0143   -6.6052   36.3203 H   0  0  0  0  0  0  0  0  0  0  0  0
    1.3322   -8.2483   35.9070 H   0  0  0  0  0  0  0  0  0  0  0  0
   -2.0846   -6.4268   34.5189 H   0  0  0  0  0  0  0  0  0  0  0  0
   -1.1088   -4.6180   33.9391 H   0  0  0  0  0  0  0  0  0  0  0  0
   -0.4142   -4.4795   35.5483 H   0  0  0  0  0  0  0  0  0  0  0  0
    2.4181   -5.5844   33.1074 H   0  0  0  0  0  0  0  0  0  0  0  0
    3.8039   -7.5567   39.5551 H   0  0  0  0  0  0  0  0  0  0  0  0
    4.9169   -9.8284   40.5128 H   0  0  0  0  0  0  0  0  0  0  0  0
    5.8775  -11.1800   38.3465 H   0  0  0  0  0  0  0  0  0  0  0  0
    5.3425   -9.7725   36.3255 H   0  0  0  0  0  0  0  0  0  0  0  0
    0.2403   -3.5973   32.6080 H   0  0  0  0  0  0  0  0  0  0  0  0
    1.7707   -3.7600   31.7582 H   0  0  0  0  0  0  0  0  0  0  0  0
    1.2973   -5.9223   30.9349 H   0  0  0  0  0  0  0  0  0  0  0  0
   -0.2402   -5.1062   30.7604 H   0  0  0  0  0  0  0  0  0  0  0  0
   -0.1810   -7.5898   31.6990 H   0  0  0  0  0  0  0  0  0  0  0  0
   -1.2747   -6.4345   32.3976 H   0  0  0  0  0  0  0  0  0  0  0  0
    1.3150   -7.5324   33.5972 H   0  0  0  0  0  0  0  0  0  0  0  0
   -2.0607   -5.9466   40.6571 H   0  0  0  0  0  0  0  0  0  0  0  0
   -2.8588   -4.0899   39.2525 H   0  0  0  0  0  0  0  0  0  0  0  0
   -2.3761   -2.9137   37.3388 H   0  0  0  0  0  0  0  0  0  0  0  0
    1.0023   -3.7565   37.3939 H   0  0  0  0  0  0  0  0  0  0  0  0
    1.8356   -5.5991   38.8076 H   0  0  0  0  0  0  0  0  0  0  0  0
  1  2  2  0
  2  3  2  0
  2  4  1  0
  4  5  1  0
  5  6  1  0
  6  7  1  0
  7  8  1  0
  8  9  1  0
  9 10  1  0
 10 11  1  0
 11 12  1  0
 12 13  1  0
 13 14  2  0
 14 15  1  0
 15 16  2  0
 16 17  1  0
 17 18  2  0
 18 19  1  0
 19 20  2  0
 20 21  1  0
 16 22  1  0
 11 23  1  0
 23 24  1  0
 24 25  1  0
 25 26  1  0
  2 27  1  0
 27 28  2  0
 28 29  1  0
 29 30  2  0
 30 31  1  0
 30 32  1  0
 32 33  2  0
 26  7  1  0
 33 27  1  0
 26 10  1  0
 22 13  1  0
 21 17  1  0
  4 34  1  0
  5 35  1  0
  5 36  1  0
  6 37  1  0
  6 38  1  0
  8 39  1  0
  9 40  1  0
  9 41  1  0
 11 42  1  0
 18 43  1  0
 19 44  1  0
 20 45  1  0
 21 46  1  0
 23 47  1  0
 23 48  1  0
 24 49  1  0
 24 50  1  0
 25 51  1  0
 25 52  1  0
 26 53  1  0
 28 54  1  0
 29 55  1  0
 31 56  1  0
 32 57  1  0
 33 58  1  0
M  END
>  <Energy>  (612) 
14.800614048505594

>  <compound_id>  (612) 
4245

>  <target_id>  (612) 
1

>  <reference_id>  (612) 
150

>  <inspiration_ids>  (612) 
[148, 150]

>  <energy_score>  (612) 
-42.733241595889346

>  <distance_score>  (612) 
2.2386961084616592

>  <path>  (612) 
/opt/xchem-fragalysis-2/maxwin/BulkDock/SCRATCH/505735/C4245-P150/C4245-P150.minimised.mol

>  <scratch_subdir>  (612) 
/opt/xchem-fragalysis-2/maxwin/BulkDock/SCRATCH/505735/C4245-P150

>  <fragmenstein_runtime>  (612) 
3.716541051864624

>  <fragmenstein_outcome>  (612) 
too moved

>  <fragmenstein_mode>  (612) 
expansion

>  <fragmenstein_error>  (612) 


$$$$
C4253-P148
     RDKit          3D

 58 63  0  0  0  0  0  0  0  0999 V2000
   -3.3120   -0.7217   32.9846 C   0  0  0  0  0  0  0  0  0  0  0  0
   -1.9960   -0.0014   33.1987 C   0  0  0  0  0  0  0  0  0  0  0  0
   -0.6090   -1.0953   33.3905 S   0  0  0  0  0  0  0  0  0  0  0  0
    0.5327   -0.3307   33.8443 O   0  0  0  0  0  0  0  0  0  0  0  0
   -0.5639   -2.0890   32.2064 N   0  0  0  0  0  0  0  0  0  0  0  0
    0.6773   -2.9491   31.9734 N   0  0  0  0  0  0  0  0  0  0  0  0
    0.5017   -4.3129   32.1759 C   0  0  0  0  0  0  0  0  0  0  0  0
    0.5866   -4.7902   33.5569 C   0  0  0  0  0  0  0  0  0  0  0  0
    0.0265   -5.9657   33.8952 C   0  0  0  0  0  0  0  0  0  0  0  0
   -0.0378   -6.4842   35.5412 S   0  0  0  0  0  0  0  0  0  0  0  0
    1.5419   -7.2028   35.6272 C   0  0  0  0  0  0  0  0  0  0  0  0
    2.2258   -7.6345   34.5858 N   0  0  0  0  0  0  0  0  0  0  0  0
    3.3676   -8.2197   35.0800 N   0  0  0  0  0  0  0  0  0  0  0  0
    3.3158   -8.1029   36.3953 C   0  0  0  0  0  0  0  0  0  0  0  0
    4.2638   -8.6888   37.2797 C   0  0  0  0  0  0  0  0  0  0  0  0
    4.2781   -8.7344   38.6589 C   0  0  0  0  0  0  0  0  0  0  0  0
    5.3900   -9.5213   39.0476 C   0  0  0  0  0  0  0  0  0  0  0  0
    6.0289   -9.9269   37.8973 C   0  0  0  0  0  0  0  0  0  0  0  0
    5.3465   -9.4054   36.8293 N   0  0  0  0  0  0  0  0  0  0  0  0
    2.1764   -7.4643   36.8062 O   0  0  0  0  0  0  0  0  0  0  0  0
   -0.5123   -6.7522   32.8771 N   0  0  0  0  0  0  0  0  0  0  0  0
   -1.2466   -7.9041   32.8982 C   0  0  0  0  0  0  0  0  0  0  0  0
   -1.4637   -8.3361   31.6770 N   0  0  0  0  0  0  0  0  0  0  0  0
   -0.9096   -7.4242   30.8132 N   0  0  0  0  0  0  0  0  0  0  0  0
   -0.4053   -6.4408   31.5320 C   0  0  0  0  0  0  0  0  0  0  0  0
    0.0860   -5.1500   31.1977 C   0  0  0  0  0  0  0  0  0  0  0  0
   -0.9087   -2.1257   34.6877 N   0  0  0  0  0  0  0  0  0  0  0  0
   -1.0724   -1.6509   36.0487 C   0  0  0  0  0  0  0  0  0  0  0  0
   -0.4361   -2.6370   37.0044 C   0  0  0  0  0  0  0  0  0  0  0  0
    0.9777   -2.7076   37.0686 C   0  0  0  0  0  0  0  0  0  0  0  0
    1.6260   -3.7192   37.7739 C   0  0  0  0  0  0  0  0  0  0  0  0
    0.8366   -4.6351   38.4214 C   0  0  0  0  0  0  0  0  0  0  0  0
   -0.5344   -4.5419   38.4281 C   0  0  0  0  0  0  0  0  0  0  0  0
   -1.2031   -3.5532   37.7350 C   0  0  0  0  0  0  0  0  0  0  0  0
   -1.1023   -5.5463   39.1432 O   0  0  0  0  0  0  0  0  0  0  0  0
    0.0604   -6.2630   39.6037 C   0  0  0  0  0  0  0  0  0  0  0  0
    1.2916   -5.7285   39.0854 O   0  0  0  0  0  0  0  0  0  0  0  0
   -3.2874   -1.3414   32.0829 H   0  0  0  0  0  0  0  0  0  0  0  0
   -4.1244    0.0031   32.8729 H   0  0  0  0  0  0  0  0  0  0  0  0
   -3.5546   -1.3711   33.8313 H   0  0  0  0  0  0  0  0  0  0  0  0
   -2.0443    0.6204   34.0984 H   0  0  0  0  0  0  0  0  0  0  0  0
   -1.7714    0.6517   32.3494 H   0  0  0  0  0  0  0  0  0  0  0  0
    1.4628   -2.5931   32.5323 H   0  0  0  0  0  0  0  0  0  0  0  0
    1.0205   -4.1287   34.3013 H   0  0  0  0  0  0  0  0  0  0  0  0
    3.5492   -8.2770   39.3173 H   0  0  0  0  0  0  0  0  0  0  0  0
    5.6854   -9.7730   40.0587 H   0  0  0  0  0  0  0  0  0  0  0  0
    6.9074  -10.5412   37.7483 H   0  0  0  0  0  0  0  0  0  0  0  0
    5.5791   -9.5514   35.8544 H   0  0  0  0  0  0  0  0  0  0  0  0
   -1.5898   -8.3678   33.8077 H   0  0  0  0  0  0  0  0  0  0  0  0
   -0.0284   -4.7967   30.1768 H   0  0  0  0  0  0  0  0  0  0  0  0
   -1.6333   -2.7863   34.4262 H   0  0  0  0  0  0  0  0  0  0  0  0
   -0.5982   -0.6738   36.2002 H   0  0  0  0  0  0  0  0  0  0  0  0
   -2.1356   -1.5147   36.2771 H   0  0  0  0  0  0  0  0  0  0  0  0
    1.5755   -1.9892   36.5067 H   0  0  0  0  0  0  0  0  0  0  0  0
    2.7068   -3.7962   37.7899 H   0  0  0  0  0  0  0  0  0  0  0  0
   -2.2835   -3.5185   37.7386 H   0  0  0  0  0  0  0  0  0  0  0  0
    0.0888   -6.2245   40.6989 H   0  0  0  0  0  0  0  0  0  0  0  0
   -0.0242   -7.3097   39.2908 H   0  0  0  0  0  0  0  0  0  0  0  0
  1  2  1  0
  2  3  1  0
  3  4  2  0
  3  5  2  0
  5  6  1  0
  6  7  1  0
  7  8  1  0
  8  9  2  0
  9 10  1  0
 10 11  1  0
 11 12  2  0
 12 13  1  0
 13 14  2  0
 14 15  1  0
 15 16  2  0
 16 17  1  0
 17 18  2  0
 18 19  1  0
 14 20  1  0
  9 21  1  0
 21 22  1  0
 22 23  2  0
 23 24  1  0
 24 25  2  0
 25 26  1  0
  3 27  1  0
 27 28  1  0
 28 29  1  0
 29 30  2  0
 30 31  1  0
 31 32  2  0
 32 33  1  0
 33 34  2  0
 33 35  1  0
 35 36  1  0
 36 37  1  0
 26  7  2  0
 34 29  1  0
 20 11  1  0
 25 21  1  0
 37 32  1  0
 19 15  1  0
  1 38  1  0
  1 39  1  0
  1 40  1  0
  2 41  1  0
  2 42  1  0
  6 43  1  0
  8 44  1  0
 16 45  1  0
 17 46  1  0
 18 47  1  0
 19 48  1  0
 22 49  1  0
 26 50  1  0
 27 51  1  0
 28 52  1  0
 28 53  1  0
 30 54  1  0
 31 55  1  0
 34 56  1  0
 36 57  1  0
 36 58  1  0
M  END
>  <Energy>  (613) 
-7.8268786161218253

>  <compound_id>  (613) 
4253

>  <target_id>  (613) 
1

>  <reference_id>  (613) 
148

>  <inspiration_ids>  (613) 
[148, 168]

>  <energy_score>  (613) 
-88.87937078212104

>  <distance_score>  (613) 
1.4522493448612852

>  <path>  (613) 
/opt/xchem-fragalysis-2/maxwin/BulkDock/SCRATCH/505735/C4253-P148/C4253-P148.minimised.mol

>  <scratch_subdir>  (613) 
/opt/xchem-fragalysis-2/maxwin/BulkDock/SCRATCH/505735/C4253-P148

>  <fragmenstein_runtime>  (613) 
6.705225229263306

>  <fragmenstein_outcome>  (613) 
too moved

>  <fragmenstein_mode>  (613) 
expansion

>  <fragmenstein_error>  (613) 


$$$$
C4253-P168
     RDKit          3D

 58 63  0  0  0  0  0  0  0  0999 V2000
   -2.1928    0.4700   33.2870 C   0  0  0  0  0  0  0  0  0  0  0  0
   -0.7045    0.5358   33.5639 C   0  0  0  0  0  0  0  0  0  0  0  0
    0.0787   -1.0598   33.6594 S   0  0  0  0  0  0  0  0  0  0  0  0
    1.4113   -0.8733   34.1910 O   0  0  0  0  0  0  0  0  0  0  0  0
   -0.2792   -1.8613   32.3877 N   0  0  0  0  0  0  0  0  0  0  0  0
    0.6787   -2.8622   31.7703 N   0  0  0  0  0  0  0  0  0  0  0  0
    0.4502   -4.2144   32.0183 C   0  0  0  0  0  0  0  0  0  0  0  0
    0.5305   -4.6513   33.4154 C   0  0  0  0  0  0  0  0  0  0  0  0
    0.0373   -5.8455   33.7887 C   0  0  0  0  0  0  0  0  0  0  0  0
    0.0309   -6.3373   35.4431 S   0  0  0  0  0  0  0  0  0  0  0  0
    1.6294   -7.0173   35.5152 C   0  0  0  0  0  0  0  0  0  0  0  0
    2.3051   -7.4733   34.4781 N   0  0  0  0  0  0  0  0  0  0  0  0
    3.4588   -8.0372   34.9753 N   0  0  0  0  0  0  0  0  0  0  0  0
    3.4195   -7.8874   36.2883 C   0  0  0  0  0  0  0  0  0  0  0  0
    4.3465   -8.4950   37.1837 C   0  0  0  0  0  0  0  0  0  0  0  0
    4.3441   -8.5368   38.5637 C   0  0  0  0  0  0  0  0  0  0  0  0
    5.4098   -9.3785   38.9671 C   0  0  0  0  0  0  0  0  0  0  0  0
    6.0401   -9.8191   37.8250 C   0  0  0  0  0  0  0  0  0  0  0  0
    5.3985   -9.2648   36.7479 N   0  0  0  0  0  0  0  0  0  0  0  0
    2.2827   -7.2406   36.6929 O   0  0  0  0  0  0  0  0  0  0  0  0
   -0.4868   -6.6715   32.7963 N   0  0  0  0  0  0  0  0  0  0  0  0
   -1.1856   -7.8443   32.8521 C   0  0  0  0  0  0  0  0  0  0  0  0
   -1.4522   -8.2822   31.6426 N   0  0  0  0  0  0  0  0  0  0  0  0
   -0.9482   -7.3670   30.7509 N   0  0  0  0  0  0  0  0  0  0  0  0
   -0.4095   -6.3838   31.4435 C   0  0  0  0  0  0  0  0  0  0  0  0
    0.0919   -5.1072   31.0656 C   0  0  0  0  0  0  0  0  0  0  0  0
   -0.6945   -1.9578   34.8446 N   0  0  0  0  0  0  0  0  0  0  0  0
   -0.8395   -1.5347   36.2177 C   0  0  0  0  0  0  0  0  0  0  0  0
   -0.3231   -2.6139   37.1401 C   0  0  0  0  0  0  0  0  0  0  0  0
    1.0768   -2.7581   37.3014 C   0  0  0  0  0  0  0  0  0  0  0  0
    1.6218   -3.8385   37.9900 C   0  0  0  0  0  0  0  0  0  0  0  0
    0.7439   -4.7513   38.5177 C   0  0  0  0  0  0  0  0  0  0  0  0
   -0.6191   -4.6005   38.4168 C   0  0  0  0  0  0  0  0  0  0  0  0
   -1.1870   -3.5436   37.7360 C   0  0  0  0  0  0  0  0  0  0  0  0
   -1.2845   -5.6237   39.0115 O   0  0  0  0  0  0  0  0  0  0  0  0
   -0.1899   -6.4028   39.5392 C   0  0  0  0  0  0  0  0  0  0  0  0
    1.0995   -5.8994   39.1494 O   0  0  0  0  0  0  0  0  0  0  0  0
   -2.4005   -0.0156   32.3286 H   0  0  0  0  0  0  0  0  0  0  0  0
   -2.6138    1.4796   33.2499 H   0  0  0  0  0  0  0  0  0  0  0  0
   -2.7210   -0.0867   34.0669 H   0  0  0  0  0  0  0  0  0  0  0  0
   -0.5162    1.0479   34.5128 H   0  0  0  0  0  0  0  0  0  0  0  0
   -0.1909    1.0943   32.7745 H   0  0  0  0  0  0  0  0  0  0  0  0
    0.7652   -2.6866   30.7651 H   0  0  0  0  0  0  0  0  0  0  0  0
    0.9717   -3.9631   34.1318 H   0  0  0  0  0  0  0  0  0  0  0  0
    3.6285   -8.0450   39.2125 H   0  0  0  0  0  0  0  0  0  0  0  0
    5.6794   -9.6430   39.9821 H   0  0  0  0  0  0  0  0  0  0  0  0
    6.8874  -10.4782   37.6873 H   0  0  0  0  0  0  0  0  0  0  0  0
    5.6338   -9.4272   35.7764 H   0  0  0  0  0  0  0  0  0  0  0  0
   -1.4779   -8.3108   33.7780 H   0  0  0  0  0  0  0  0  0  0  0  0
    0.0105   -4.8222   30.0222 H   0  0  0  0  0  0  0  0  0  0  0  0
   -1.5107   -2.4221   34.4671 H   0  0  0  0  0  0  0  0  0  0  0  0
   -0.2904   -0.6070   36.4200 H   0  0  0  0  0  0  0  0  0  0  0  0
   -1.8908   -1.3134   36.4352 H   0  0  0  0  0  0  0  0  0  0  0  0
    1.7496   -2.0441   36.8250 H   0  0  0  0  0  0  0  0  0  0  0  0
    2.6936   -3.9700   38.0794 H   0  0  0  0  0  0  0  0  0  0  0  0
   -2.2610   -3.4668   37.6374 H   0  0  0  0  0  0  0  0  0  0  0  0
   -0.2554   -6.4072   40.6336 H   0  0  0  0  0  0  0  0  0  0  0  0
   -0.2818   -7.4326   39.1782 H   0  0  0  0  0  0  0  0  0  0  0  0
  1  2  1  0
  2  3  1  0
  3  4  2  0
  3  5  2  0
  5  6  1  0
  6  7  1  0
  7  8  1  0
  8  9  2  0
  9 10  1  0
 10 11  1  0
 11 12  2  0
 12 13  1  0
 13 14  2  0
 14 15  1  0
 15 16  2  0
 16 17  1  0
 17 18  2  0
 18 19  1  0
 14 20  1  0
  9 21  1  0
 21 22  1  0
 22 23  2  0
 23 24  1  0
 24 25  2  0
 25 26  1  0
  3 27  1  0
 27 28  1  0
 28 29  1  0
 29 30  2  0
 30 31  1  0
 31 32  2  0
 32 33  1  0
 33 34  2  0
 33 35  1  0
 35 36  1  0
 36 37  1  0
 26  7  2  0
 34 29  1  0
 20 11  1  0
 25 21  1  0
 37 32  1  0
 19 15  1  0
  1 38  1  0
  1 39  1  0
  1 40  1  0
  2 41  1  0
  2 42  1  0
  6 43  1  0
  8 44  1  0
 16 45  1  0
 17 46  1  0
 18 47  1  0
 19 48  1  0
 22 49  1  0
 26 50  1  0
 27 51  1  0
 28 52  1  0
 28 53  1  0
 30 54  1  0
 31 55  1  0
 34 56  1  0
 36 57  1  0
 36 58  1  0
M  END
>  <Energy>  (614) 
-9.6207446590491337

>  <compound_id>  (614) 
4253

>  <target_id>  (614) 
1

>  <reference_id>  (614) 
168

>  <inspiration_ids>  (614) 
[148, 168]

>  <energy_score>  (614) 
-90.67323682504843

>  <distance_score>  (614) 
1.4174000371512978

>  <path>  (614) 
/opt/xchem-fragalysis-2/maxwin/BulkDock/SCRATCH/505735/C4253-P168/C4253-P168.minimised.mol

>  <scratch_subdir>  (614) 
/opt/xchem-fragalysis-2/maxwin/BulkDock/SCRATCH/505735/C4253-P168

>  <fragmenstein_runtime>  (614) 
6.435504674911499

>  <fragmenstein_outcome>  (614) 
too moved

>  <fragmenstein_mode>  (614) 
expansion

>  <fragmenstein_error>  (614) 


$$$$
C4255-P148
     RDKit          3D

 59 63  0  0  0  0  0  0  0  0999 V2000
    4.6600   -0.5934   25.9221 C   0  0  0  0  0  0  0  0  0  0  0  0
    4.2665   -0.9674   27.2417 O   0  0  0  0  0  0  0  0  0  0  0  0
    5.2703   -1.4963   27.9931 C   0  0  0  0  0  0  0  0  0  0  0  0
    6.4119   -1.7125   27.6012 O   0  0  0  0  0  0  0  0  0  0  0  0
    4.8117   -1.8126   29.4032 C   0  0  0  0  0  0  0  0  0  0  0  0
    3.4252   -1.5137   29.6385 N   0  0  0  0  0  0  0  0  0  0  0  0
    2.5491   -1.7097   30.9061 C   0  0  0  0  0  0  0  0  0  0  0  0
    2.8041   -2.2291   31.9598 N   0  0  0  0  0  0  0  0  0  0  0  0
    3.9680   -3.0181   32.2744 C   0  0  0  0  0  0  0  0  0  0  0  0
    3.6712   -3.9275   33.4879 C   0  0  0  0  0  0  0  0  0  0  0  0
    2.2542   -4.2273   33.7510 N   0  0  0  0  0  0  0  0  0  0  0  0
    1.3978   -5.0919   33.0796 C   0  0  0  0  0  0  0  0  0  0  0  0
    1.4284   -5.1385   31.6158 C   0  0  0  0  0  0  0  0  0  0  0  0
    0.6087   -5.9108   30.8837 C   0  0  0  0  0  0  0  0  0  0  0  0
   -0.3046   -6.7641   31.5372 C   0  0  0  0  0  0  0  0  0  0  0  0
   -1.1628   -7.6532   31.0868 N   0  0  0  0  0  0  0  0  0  0  0  0
   -1.7977   -8.1988   32.1708 N   0  0  0  0  0  0  0  0  0  0  0  0
   -1.3038   -7.6373   33.2526 C   0  0  0  0  0  0  0  0  0  0  0  0
   -0.3471   -6.7131   32.9214 N   0  0  0  0  0  0  0  0  0  0  0  0
    0.4765   -5.8832   33.6992 C   0  0  0  0  0  0  0  0  0  0  0  0
    0.3873   -5.9827   35.4451 S   0  0  0  0  0  0  0  0  0  0  0  0
    1.7658   -7.0372   35.6309 C   0  0  0  0  0  0  0  0  0  0  0  0
    2.3007   -7.7344   34.6470 N   0  0  0  0  0  0  0  0  0  0  0  0
    3.3677   -8.4108   35.1741 N   0  0  0  0  0  0  0  0  0  0  0  0
    3.4027   -8.1170   36.4623 C   0  0  0  0  0  0  0  0  0  0  0  0
    4.3132   -8.7209   37.3726 C   0  0  0  0  0  0  0  0  0  0  0  0
    4.3624   -8.6690   38.7501 C   0  0  0  0  0  0  0  0  0  0  0  0
    5.4180   -9.5156   39.1701 C   0  0  0  0  0  0  0  0  0  0  0  0
    5.9901  -10.0534   38.0392 C   0  0  0  0  0  0  0  0  0  0  0  0
    5.3185   -9.5596   36.9524 N   0  0  0  0  0  0  0  0  0  0  0  0
    2.4095   -7.2390   36.8184 O   0  0  0  0  0  0  0  0  0  0  0  0
    1.1708   -1.2658   30.7232 C   0  0  0  0  0  0  0  0  0  0  0  0
    0.1076   -1.6773   31.5561 C   0  0  0  0  0  0  0  0  0  0  0  0
   -1.0023   -1.1230   31.0086 C   0  0  0  0  0  0  0  0  0  0  0  0
   -2.3985   -1.1894   31.4166 C   0  0  0  0  0  0  0  0  0  0  0  0
   -0.6583   -0.4001   29.9119 O   0  0  0  0  0  0  0  0  0  0  0  0
    0.7191   -0.5091   29.7061 N   0  0  0  0  0  0  0  0  0  0  0  0
    3.9459    0.1476   25.5587 H   0  0  0  0  0  0  0  0  0  0  0  0
    5.6535   -0.1421   25.9273 H   0  0  0  0  0  0  0  0  0  0  0  0
    4.6462   -1.4705   25.2703 H   0  0  0  0  0  0  0  0  0  0  0  0
    4.9851   -2.8816   29.5506 H   0  0  0  0  0  0  0  0  0  0  0  0
    5.4307   -1.2360   30.0966 H   0  0  0  0  0  0  0  0  0  0  0  0
    2.8564   -1.1015   28.8926 H   0  0  0  0  0  0  0  0  0  0  0  0
    4.8340   -2.3835   32.4920 H   0  0  0  0  0  0  0  0  0  0  0  0
    4.2377   -3.6709   31.4383 H   0  0  0  0  0  0  0  0  0  0  0  0
    4.2452   -4.8585   33.4139 H   0  0  0  0  0  0  0  0  0  0  0  0
    4.0508   -3.4120   34.3791 H   0  0  0  0  0  0  0  0  0  0  0  0
    2.0488   -4.1733   34.7474 H   0  0  0  0  0  0  0  0  0  0  0  0
    2.1218   -4.5004   31.0873 H   0  0  0  0  0  0  0  0  0  0  0  0
    0.6414   -5.8960   29.8014 H   0  0  0  0  0  0  0  0  0  0  0  0
   -1.5882   -7.8712   34.2678 H   0  0  0  0  0  0  0  0  0  0  0  0
    3.6929   -8.1088   39.3915 H   0  0  0  0  0  0  0  0  0  0  0  0
    5.7205   -9.7188   40.1901 H   0  0  0  0  0  0  0  0  0  0  0  0
    6.8113  -10.7478   37.9168 H   0  0  0  0  0  0  0  0  0  0  0  0
    5.5076   -9.7981   35.9864 H   0  0  0  0  0  0  0  0  0  0  0  0
    0.1674   -2.2997   32.4367 H   0  0  0  0  0  0  0  0  0  0  0  0
   -2.9698   -0.3807   30.9574 H   0  0  0  0  0  0  0  0  0  0  0  0
   -2.4937   -1.0793   32.5019 H   0  0  0  0  0  0  0  0  0  0  0  0
   -2.8327   -2.1533   31.1409 H   0  0  0  0  0  0  0  0  0  0  0  0
  1  2  1  0
  2  3  1  0
  3  4  2  0
  3  5  1  0
  5  6  1  0
  6  7  1  0
  7  8  2  3
  8  9  1  0
  9 10  1  0
 10 11  1  0
 11 12  1  0
 12 13  1  0
 13 14  2  0
 14 15  1  0
 15 16  2  0
 16 17  1  0
 17 18  2  0
 18 19  1  0
 19 20  1  0
 20 21  1  0
 21 22  1  0
 22 23  2  0
 23 24  1  0
 24 25  2  0
 25 26  1  0
 26 27  2  0
 27 28  1  0
 28 29  2  0
 29 30  1  0
 25 31  1  0
  7 32  1  0
 32 33  1  0
 33 34  2  0
 34 35  1  0
 34 36  1  0
 36 37  1  0
 20 12  2  0
 31 22  1  0
 37 32  2  0
 19 15  1  0
 30 26  1  0
  1 38  1  0
  1 39  1  0
  1 40  1  0
  5 41  1  0
  5 42  1  0
  6 43  1  0
  9 44  1  0
  9 45  1  0
 10 46  1  0
 10 47  1  0
 11 48  1  0
 13 49  1  0
 14 50  1  0
 18 51  1  0
 27 52  1  0
 28 53  1  0
 29 54  1  0
 30 55  1  0
 33 56  1  0
 35 57  1  0
 35 58  1  0
 35 59  1  0
M  END
>  <Energy>  (615) 
102.1647879211575

>  <compound_id>  (615) 
4255

>  <target_id>  (615) 
1

>  <reference_id>  (615) 
148

>  <inspiration_ids>  (615) 
[148, 186]

>  <energy_score>  (615) 
-45.64044029649614

>  <distance_score>  (615) 
1.5967650920473746

>  <path>  (615) 
/opt/xchem-fragalysis-2/maxwin/BulkDock/SCRATCH/505735/C4255-P148/C4255-P148.minimised.mol

>  <scratch_subdir>  (615) 
/opt/xchem-fragalysis-2/maxwin/BulkDock/SCRATCH/505735/C4255-P148

>  <fragmenstein_runtime>  (615) 
8.783679723739624

>  <fragmenstein_outcome>  (615) 
too moved

>  <fragmenstein_mode>  (615) 
expansion

>  <fragmenstein_error>  (615) 


$$$$
C4255-P186
     RDKit          3D

 59 63  0  0  0  0  0  0  0  0999 V2000
    3.4273    1.4952   26.9619 C   0  0  0  0  0  0  0  0  0  0  0  0
    4.4367    1.0843   27.8981 O   0  0  0  0  0  0  0  0  0  0  0  0
    4.5786   -0.2066   28.2931 C   0  0  0  0  0  0  0  0  0  0  0  0
    5.5542   -0.5473   28.9625 O   0  0  0  0  0  0  0  0  0  0  0  0
    3.5045   -1.2077   27.8976 C   0  0  0  0  0  0  0  0  0  0  0  0
    2.2682   -1.0009   28.5997 N   0  0  0  0  0  0  0  0  0  0  0  0
    1.7971   -1.5100   29.9906 C   0  0  0  0  0  0  0  0  0  0  0  0
    2.3840   -2.1273   30.8351 N   0  0  0  0  0  0  0  0  0  0  0  0
    3.6841   -2.7131   30.9332 C   0  0  0  0  0  0  0  0  0  0  0  0
    3.7986   -3.5471   32.2455 C   0  0  0  0  0  0  0  0  0  0  0  0
    2.5520   -3.9891   32.9124 N   0  0  0  0  0  0  0  0  0  0  0  0
    1.6131   -4.9423   32.5336 C   0  0  0  0  0  0  0  0  0  0  0  0
    1.4439   -5.1973   31.1031 C   0  0  0  0  0  0  0  0  0  0  0  0
    0.5335   -6.0449   30.6045 C   0  0  0  0  0  0  0  0  0  0  0  0
   -0.2836   -6.7846   31.4779 C   0  0  0  0  0  0  0  0  0  0  0  0
   -1.2014   -7.6995   31.2607 N   0  0  0  0  0  0  0  0  0  0  0  0
   -1.6654   -8.1079   32.4827 N   0  0  0  0  0  0  0  0  0  0  0  0
   -1.0284   -7.4237   33.4086 C   0  0  0  0  0  0  0  0  0  0  0  0
   -0.1317   -6.5566   32.8356 N   0  0  0  0  0  0  0  0  0  0  0  0
    0.7883   -5.6342   33.3779 C   0  0  0  0  0  0  0  0  0  0  0  0
    0.8723   -5.4616   35.1189 S   0  0  0  0  0  0  0  0  0  0  0  0
    2.0363   -6.7296   35.3956 C   0  0  0  0  0  0  0  0  0  0  0  0
    2.4414   -7.5837   34.4763 N   0  0  0  0  0  0  0  0  0  0  0  0
    3.3911   -8.3782   35.0628 N   0  0  0  0  0  0  0  0  0  0  0  0
    3.4852   -7.9896   36.3228 C   0  0  0  0  0  0  0  0  0  0  0  0
    4.3292   -8.6310   37.2726 C   0  0  0  0  0  0  0  0  0  0  0  0
    4.3569   -8.5400   38.6489 C   0  0  0  0  0  0  0  0  0  0  0  0
    5.3429   -9.4445   39.1163 C   0  0  0  0  0  0  0  0  0  0  0  0
    5.8993  -10.0535   38.0140 C   0  0  0  0  0  0  0  0  0  0  0  0
    5.2832   -9.5489   36.8994 N   0  0  0  0  0  0  0  0  0  0  0  0
    2.6364   -6.9493   36.6047 O   0  0  0  0  0  0  0  0  0  0  0  0
    0.3960   -1.2290   30.2547 C   0  0  0  0  0  0  0  0  0  0  0  0
   -0.3393   -1.8724   31.2681 C   0  0  0  0  0  0  0  0  0  0  0  0
   -1.5724   -1.3112   31.2192 C   0  0  0  0  0  0  0  0  0  0  0  0
   -2.7450   -1.5297   32.0640 C   0  0  0  0  0  0  0  0  0  0  0  0
   -1.6152   -0.3956   30.2139 O   0  0  0  0  0  0  0  0  0  0  0  0
   -0.3719   -0.3604   29.5714 N   0  0  0  0  0  0  0  0  0  0  0  0
    2.4423    1.4787   27.4331 H   0  0  0  0  0  0  0  0  0  0  0  0
    3.6478    2.5260   26.6706 H   0  0  0  0  0  0  0  0  0  0  0  0
    3.4553    0.8778   26.0614 H   0  0  0  0  0  0  0  0  0  0  0  0
    3.3474   -1.1752   26.8156 H   0  0  0  0  0  0  0  0  0  0  0  0
    3.8865   -2.2138   28.0971 H   0  0  0  0  0  0  0  0  0  0  0  0
    1.5305   -0.4373   28.1777 H   0  0  0  0  0  0  0  0  0  0  0  0
    4.4678   -1.9493   30.9329 H   0  0  0  0  0  0  0  0  0  0  0  0
    3.8757   -3.3764   30.0832 H   0  0  0  0  0  0  0  0  0  0  0  0
    4.4519   -4.4107   32.0777 H   0  0  0  0  0  0  0  0  0  0  0  0
    4.3255   -2.9182   32.9745 H   0  0  0  0  0  0  0  0  0  0  0  0
    2.5749   -3.8254   33.9171 H   0  0  0  0  0  0  0  0  0  0  0  0
    2.0539   -4.6526   30.3963 H   0  0  0  0  0  0  0  0  0  0  0  0
    0.4232   -6.1741   29.5400 H   0  0  0  0  0  0  0  0  0  0  0  0
   -1.1697   -7.5295   34.4743 H   0  0  0  0  0  0  0  0  0  0  0  0
    3.7177   -7.9131   39.2589 H   0  0  0  0  0  0  0  0  0  0  0  0
    5.6122   -9.6338   40.1482 H   0  0  0  0  0  0  0  0  0  0  0  0
    6.6763  -10.8019   37.9287 H   0  0  0  0  0  0  0  0  0  0  0  0
    5.4786   -9.8240   35.9443 H   0  0  0  0  0  0  0  0  0  0  0  0
    0.0160   -2.6076   31.9730 H   0  0  0  0  0  0  0  0  0  0  0  0
   -3.3649   -2.3395   31.6699 H   0  0  0  0  0  0  0  0  0  0  0  0
   -3.3489   -0.6213   32.1418 H   0  0  0  0  0  0  0  0  0  0  0  0
   -2.4468   -1.8079   33.0806 H   0  0  0  0  0  0  0  0  0  0  0  0
  1  2  1  0
  2  3  1  0
  3  4  2  0
  3  5  1  0
  5  6  1  0
  6  7  1  0
  7  8  2  3
  8  9  1  0
  9 10  1  0
 10 11  1  0
 11 12  1  0
 12 13  1  0
 13 14  2  0
 14 15  1  0
 15 16  2  0
 16 17  1  0
 17 18  2  0
 18 19  1  0
 19 20  1  0
 20 21  1  0
 21 22  1  0
 22 23  2  0
 23 24  1  0
 24 25  2  0
 25 26  1  0
 26 27  2  0
 27 28  1  0
 28 29  2  0
 29 30  1  0
 25 31  1  0
  7 32  1  0
 32 33  1  0
 33 34  2  0
 34 35  1  0
 34 36  1  0
 36 37  1  0
 20 12  2  0
 31 22  1  0
 37 32  2  0
 19 15  1  0
 30 26  1  0
  1 38  1  0
  1 39  1  0
  1 40  1  0
  5 41  1  0
  5 42  1  0
  6 43  1  0
  9 44  1  0
  9 45  1  0
 10 46  1  0
 10 47  1  0
 11 48  1  0
 13 49  1  0
 14 50  1  0
 18 51  1  0
 27 52  1  0
 28 53  1  0
 29 54  1  0
 30 55  1  0
 33 56  1  0
 35 57  1  0
 35 58  1  0
 35 59  1  0
M  END
>  <Energy>  (616) 
113.77359570250951

>  <compound_id>  (616) 
4255

>  <target_id>  (616) 
1

>  <reference_id>  (616) 
186

>  <inspiration_ids>  (616) 
[148, 186]

>  <energy_score>  (616) 
-34.03163251514809

>  <distance_score>  (616) 
1.4583861533444844

>  <path>  (616) 
/opt/xchem-fragalysis-2/maxwin/BulkDock/SCRATCH/505735/C4255-P186/C4255-P186.minimised.mol

>  <scratch_subdir>  (616) 
/opt/xchem-fragalysis-2/maxwin/BulkDock/SCRATCH/505735/C4255-P186

>  <fragmenstein_runtime>  (616) 
7.243296384811401

>  <fragmenstein_outcome>  (616) 
too moved

>  <fragmenstein_mode>  (616) 
expansion

>  <fragmenstein_error>  (616) 


$$$$
C4257-P148
     RDKit          3D

 55 59  0  0  0  0  0  0  0  0999 V2000
   -1.3423   -0.7410   29.6786 C   0  0  0  0  0  0  0  0  0  0  0  0
   -1.7553   -1.3847   31.2861 S   0  0  0  0  0  0  0  0  0  0  0  0
   -2.4897   -0.3918   32.0362 O   0  0  0  0  0  0  0  0  0  0  0  0
   -2.2264   -2.7459   31.1682 O   0  0  0  0  0  0  0  0  0  0  0  0
   -0.2493   -1.4032   32.0100 N   0  0  0  0  0  0  0  0  0  0  0  0
    0.6238   -2.5378   31.7925 C   0  0  0  0  0  0  0  0  0  0  0  0
    2.0868   -2.0959   31.9702 C   0  0  0  0  0  0  0  0  0  0  0  0
    2.7550   -2.7294   33.1865 C   0  0  0  0  0  0  0  0  0  0  0  0
    2.6203   -4.2588   33.2181 C   0  0  0  0  0  0  0  0  0  0  0  0
    1.2357   -4.7882   32.7218 C   0  0  0  0  0  0  0  0  0  0  0  0
    1.4268   -5.2725   31.2488 C   0  0  0  0  0  0  0  0  0  0  0  0
    0.1604   -5.8132   30.6090 C   0  0  0  0  0  0  0  0  0  0  0  0
   -0.5581   -6.7356   31.5138 C   0  0  0  0  0  0  0  0  0  0  0  0
   -1.3527   -7.7228   31.1759 N   0  0  0  0  0  0  0  0  0  0  0  0
   -1.8403   -8.2604   32.3341 N   0  0  0  0  0  0  0  0  0  0  0  0
   -1.3371   -7.6040   33.3561 C   0  0  0  0  0  0  0  0  0  0  0  0
   -1.5949   -7.8322   34.6569 N   0  0  0  0  0  0  0  0  0  0  0  0
   -0.4529   -6.6710   32.8876 N   0  0  0  0  0  0  0  0  0  0  0  0
    0.7201   -6.0426   33.5117 C   0  0  0  0  0  0  0  0  0  0  0  0
    0.6956   -5.8890   35.3408 S   0  0  0  0  0  0  0  0  0  0  0  0
    1.9838   -7.0118   35.6977 C   0  0  0  0  0  0  0  0  0  0  0  0
    2.5580   -7.7558   34.7742 N   0  0  0  0  0  0  0  0  0  0  0  0
    3.5500   -8.4593   35.3786 N   0  0  0  0  0  0  0  0  0  0  0  0
    3.5017   -8.1480   36.6611 C   0  0  0  0  0  0  0  0  0  0  0  0
    4.3373   -8.7750   37.6222 C   0  0  0  0  0  0  0  0  0  0  0  0
    4.3280   -8.7127   38.9985 C   0  0  0  0  0  0  0  0  0  0  0  0
    5.3382   -9.5889   39.4680 C   0  0  0  0  0  0  0  0  0  0  0  0
    5.9405  -10.1554   38.3670 C   0  0  0  0  0  0  0  0  0  0  0  0
    5.3299   -9.6517   37.2507 N   0  0  0  0  0  0  0  0  0  0  0  0
    2.5231   -7.2204   36.9344 O   0  0  0  0  0  0  0  0  0  0  0  0
    0.2220   -3.6445   32.7747 C   0  0  0  0  0  0  0  0  0  0  0  0
   -2.2383   -0.7463   29.0630 H   0  0  0  0  0  0  0  0  0  0  0  0
   -0.9655    0.2771   29.7895 H   0  0  0  0  0  0  0  0  0  0  0  0
   -0.5944   -1.3871   29.2154 H   0  0  0  0  0  0  0  0  0  0  0  0
   -0.2532   -0.9526   32.9263 H   0  0  0  0  0  0  0  0  0  0  0  0
    0.4971   -2.8572   30.7529 H   0  0  0  0  0  0  0  0  0  0  0  0
    2.1730   -1.0040   32.0339 H   0  0  0  0  0  0  0  0  0  0  0  0
    2.6552   -2.3858   31.0772 H   0  0  0  0  0  0  0  0  0  0  0  0
    2.3105   -2.3098   34.0980 H   0  0  0  0  0  0  0  0  0  0  0  0
    3.8165   -2.4567   33.2123 H   0  0  0  0  0  0  0  0  0  0  0  0
    3.4254   -4.6880   32.6093 H   0  0  0  0  0  0  0  0  0  0  0  0
    2.8447   -4.5782   34.2391 H   0  0  0  0  0  0  0  0  0  0  0  0
    1.8751   -4.5156   30.5984 H   0  0  0  0  0  0  0  0  0  0  0  0
    2.1487   -6.0821   31.2594 H   0  0  0  0  0  0  0  0  0  0  0  0
   -0.4959   -4.9877   30.3205 H   0  0  0  0  0  0  0  0  0  0  0  0
    0.4286   -6.3468   29.6968 H   0  0  0  0  0  0  0  0  0  0  0  0
   -1.8120   -8.8184   34.8501 H   0  0  0  0  0  0  0  0  0  0  0  0
   -0.9847   -7.4504   35.3711 H   0  0  0  0  0  0  0  0  0  0  0  0
    1.4682   -6.7940   33.2652 H   0  0  0  0  0  0  0  0  0  0  0  0
    3.6520   -8.1242   39.6068 H   0  0  0  0  0  0  0  0  0  0  0  0
    5.5911   -9.7921   40.5014 H   0  0  0  0  0  0  0  0  0  0  0  0
    6.7436  -10.8764   38.2855 H   0  0  0  0  0  0  0  0  0  0  0  0
    5.5515   -9.9026   36.2948 H   0  0  0  0  0  0  0  0  0  0  0  0
   -0.7843   -4.0097   32.5549 H   0  0  0  0  0  0  0  0  0  0  0  0
    0.1511   -3.2430   33.7951 H   0  0  0  0  0  0  0  0  0  0  0  0
  1  2  1  0
  2  3  2  0
  2  4  2  0
  2  5  1  0
  5  6  1  0
  6  7  1  0
  7  8  1  0
  8  9  1  0
  9 10  1  0
 10 11  1  0
 11 12  1  0
 12 13  1  0
 13 14  2  0
 14 15  1  0
 15 16  2  0
 16 17  1  0
 16 18  1  0
 18 19  1  0
 19 20  1  0
 20 21  1  0
 21 22  2  0
 22 23  1  0
 23 24  2  0
 24 25  1  0
 25 26  2  0
 26 27  1  0
 27 28  2  0
 28 29  1  0
 24 30  1  0
 10 31  1  0
 31  6  1  0
 19 10  1  0
 30 21  1  0
 18 13  1  0
 29 25  1  0
  1 32  1  0
  1 33  1  0
  1 34  1  0
  5 35  1  0
  6 36  1  0
  7 37  1  0
  7 38  1  0
  8 39  1  0
  8 40  1  0
  9 41  1  0
  9 42  1  0
 11 43  1  0
 11 44  1  0
 12 45  1  0
 12 46  1  0
 17 47  1  0
 17 48  1  0
 19 49  1  0
 26 50  1  0
 27 51  1  0
 28 52  1  0
 29 53  1  0
 31 54  1  0
 31 55  1  0
M  END
>  <Energy>  (617) 
-52.47314392622053

>  <compound_id>  (617) 
4257

>  <target_id>  (617) 
1

>  <reference_id>  (617) 
148

>  <inspiration_ids>  (617) 
[148, 195]

>  <energy_score>  (617) 
-82.45818311952934

>  <distance_score>  (617) 
0.9368477539474592

>  <path>  (617) 
/opt/xchem-fragalysis-2/maxwin/BulkDock/SCRATCH/505735/C4257-P148/C4257-P148.minimised.mol

>  <scratch_subdir>  (617) 
/opt/xchem-fragalysis-2/maxwin/BulkDock/SCRATCH/505735/C4257-P148

>  <fragmenstein_runtime>  (617) 
3.049117088317871

>  <fragmenstein_outcome>  (617) 
acceptable

>  <fragmenstein_mode>  (617) 
expansion

>  <fragmenstein_error>  (617) 


$$$$
C4257-P195
     RDKit          3D

 55 59  0  0  0  0  0  0  0  0999 V2000
   -1.3999   -0.7706   29.6707 C   0  0  0  0  0  0  0  0  0  0  0  0
   -1.7556   -1.4289   31.2855 S   0  0  0  0  0  0  0  0  0  0  0  0
   -2.4593   -0.4355   32.0654 O   0  0  0  0  0  0  0  0  0  0  0  0
   -2.2418   -2.7848   31.1739 O   0  0  0  0  0  0  0  0  0  0  0  0
   -0.2247   -1.4570   31.9543 N   0  0  0  0  0  0  0  0  0  0  0  0
    0.6592   -2.5758   31.6852 C   0  0  0  0  0  0  0  0  0  0  0  0
    2.1162   -2.1063   31.8542 C   0  0  0  0  0  0  0  0  0  0  0  0
    2.7819   -2.6785   33.1018 C   0  0  0  0  0  0  0  0  0  0  0  0
    2.6995   -4.2103   33.1837 C   0  0  0  0  0  0  0  0  0  0  0  0
    1.3619   -4.8048   32.6384 C   0  0  0  0  0  0  0  0  0  0  0  0
    1.6385   -5.2899   31.1807 C   0  0  0  0  0  0  0  0  0  0  0  0
    0.4265   -5.8950   30.4868 C   0  0  0  0  0  0  0  0  0  0  0  0
   -0.3672   -6.7634   31.3795 C   0  0  0  0  0  0  0  0  0  0  0  0
   -1.2337   -7.6794   31.0232 N   0  0  0  0  0  0  0  0  0  0  0  0
   -1.7600   -8.1997   32.1732 N   0  0  0  0  0  0  0  0  0  0  0  0
   -1.2228   -7.5904   33.2080 C   0  0  0  0  0  0  0  0  0  0  0  0
   -1.5055   -7.8032   34.5069 N   0  0  0  0  0  0  0  0  0  0  0  0
   -0.2866   -6.7075   32.7550 N   0  0  0  0  0  0  0  0  0  0  0  0
    0.8644   -6.0772   33.4115 C   0  0  0  0  0  0  0  0  0  0  0  0
    0.7957   -5.9209   35.2385 S   0  0  0  0  0  0  0  0  0  0  0  0
    2.1065   -7.0031   35.6276 C   0  0  0  0  0  0  0  0  0  0  0  0
    2.7815   -7.6743   34.7148 N   0  0  0  0  0  0  0  0  0  0  0  0
    3.7449   -8.3826   35.3596 N   0  0  0  0  0  0  0  0  0  0  0  0
    3.6006   -8.1206   36.6456 C   0  0  0  0  0  0  0  0  0  0  0  0
    4.3873   -8.7637   37.6376 C   0  0  0  0  0  0  0  0  0  0  0  0
    4.3066   -8.7304   39.0125 C   0  0  0  0  0  0  0  0  0  0  0  0
    5.2871   -9.6225   39.5139 C   0  0  0  0  0  0  0  0  0  0  0  0
    5.9420  -10.1698   38.4331 C   0  0  0  0  0  0  0  0  0  0  0  0
    5.3962   -9.6342   37.2984 N   0  0  0  0  0  0  0  0  0  0  0  0
    2.5756   -7.2387   36.8884 O   0  0  0  0  0  0  0  0  0  0  0  0
    0.2921   -3.7092   32.6479 C   0  0  0  0  0  0  0  0  0  0  0  0
   -2.3326   -0.6897   29.1179 H   0  0  0  0  0  0  0  0  0  0  0  0
   -0.9472    0.2163   29.7821 H   0  0  0  0  0  0  0  0  0  0  0  0
   -0.7297   -1.4531   29.1453 H   0  0  0  0  0  0  0  0  0  0  0  0
   -0.2066   -1.0356   32.8845 H   0  0  0  0  0  0  0  0  0  0  0  0
    0.5210   -2.8769   30.6412 H   0  0  0  0  0  0  0  0  0  0  0  0
    2.1843   -1.0113   31.8739 H   0  0  0  0  0  0  0  0  0  0  0  0
    2.6984   -2.4201   30.9789 H   0  0  0  0  0  0  0  0  0  0  0  0
    2.3044   -2.2455   33.9902 H   0  0  0  0  0  0  0  0  0  0  0  0
    3.8328   -2.3685   33.1391 H   0  0  0  0  0  0  0  0  0  0  0  0
    3.5494   -4.6362   32.6345 H   0  0  0  0  0  0  0  0  0  0  0  0
    2.8808   -4.4811   34.2269 H   0  0  0  0  0  0  0  0  0  0  0  0
    2.0617   -4.5104   30.5406 H   0  0  0  0  0  0  0  0  0  0  0  0
    2.4215   -6.0500   31.2255 H   0  0  0  0  0  0  0  0  0  0  0  0
   -0.2173   -5.1045   30.0878 H   0  0  0  0  0  0  0  0  0  0  0  0
    0.7863   -6.4835   29.6409 H   0  0  0  0  0  0  0  0  0  0  0  0
   -1.7505   -8.7909   34.6919 H   0  0  0  0  0  0  0  0  0  0  0  0
   -0.8523   -7.5113   35.2239 H   0  0  0  0  0  0  0  0  0  0  0  0
    1.6256   -6.8213   33.1791 H   0  0  0  0  0  0  0  0  0  0  0  0
    3.6026   -8.1488   39.5954 H   0  0  0  0  0  0  0  0  0  0  0  0
    5.4870   -9.8481   40.5543 H   0  0  0  0  0  0  0  0  0  0  0  0
    6.7438  -10.8937   38.3787 H   0  0  0  0  0  0  0  0  0  0  0  0
    5.6655   -9.8601   36.3485 H   0  0  0  0  0  0  0  0  0  0  0  0
   -0.6873   -4.1182   32.3874 H   0  0  0  0  0  0  0  0  0  0  0  0
    0.1657   -3.3180   33.6673 H   0  0  0  0  0  0  0  0  0  0  0  0
  1  2  1  0
  2  3  2  0
  2  4  2  0
  2  5  1  0
  5  6  1  0
  6  7  1  0
  7  8  1  0
  8  9  1  0
  9 10  1  0
 10 11  1  0
 11 12  1  0
 12 13  1  0
 13 14  2  0
 14 15  1  0
 15 16  2  0
 16 17  1  0
 16 18  1  0
 18 19  1  0
 19 20  1  0
 20 21  1  0
 21 22  2  0
 22 23  1  0
 23 24  2  0
 24 25  1  0
 25 26  2  0
 26 27  1  0
 27 28  2  0
 28 29  1  0
 24 30  1  0
 10 31  1  0
 31  6  1  0
 19 10  1  0
 30 21  1  0
 18 13  1  0
 29 25  1  0
  1 32  1  0
  1 33  1  0
  1 34  1  0
  5 35  1  0
  6 36  1  0
  7 37  1  0
  7 38  1  0
  8 39  1  0
  8 40  1  0
  9 41  1  0
  9 42  1  0
 11 43  1  0
 11 44  1  0
 12 45  1  0
 12 46  1  0
 17 47  1  0
 17 48  1  0
 19 49  1  0
 26 50  1  0
 27 51  1  0
 28 52  1  0
 29 53  1  0
 31 54  1  0
 31 55  1  0
M  END
>  <Energy>  (618) 
-53.49639944622195

>  <compound_id>  (618) 
4257

>  <target_id>  (618) 
1

>  <reference_id>  (618) 
195

>  <inspiration_ids>  (618) 
[148, 195]

>  <energy_score>  (618) 
-83.48143863953153

>  <distance_score>  (618) 
0.9398847568506642

>  <path>  (618) 
/opt/xchem-fragalysis-2/maxwin/BulkDock/SCRATCH/505735/C4257-P195/C4257-P195.minimised.mol

>  <scratch_subdir>  (618) 
/opt/xchem-fragalysis-2/maxwin/BulkDock/SCRATCH/505735/C4257-P195

>  <fragmenstein_runtime>  (618) 
2.9855244159698486

>  <fragmenstein_outcome>  (618) 
acceptable

>  <fragmenstein_mode>  (618) 
expansion

>  <fragmenstein_error>  (618) 


$$$$
C3788-P148
     RDKit          3D

 50 54  0  0  0  0  0  0  0  0999 V2000
    2.0306    0.7176   32.5207 C   0  0  0  0  0  0  0  0  0  0  0  0
    1.6867   -1.1354   31.9744 N   0  0  0  0  0  0  0  0  0  0  0  0
    1.7533    0.1705   31.9906 C   0  0  0  0  0  0  0  0  0  0  0  0
    0.9258    0.7813   30.4621 C   0  0  0  0  0  0  0  0  0  0  0  0
    0.9307    2.1605   30.1947 C   0  0  0  0  0  0  0  0  0  0  0  0
    0.2365    2.6233   29.0783 C   0  0  0  0  0  0  0  0  0  0  0  0
   -0.4455    1.7283   28.2463 C   0  0  0  0  0  0  0  0  0  0  0  0
   -0.4285    0.3570   28.5072 C   0  0  0  0  0  0  0  0  0  0  0  0
    0.2560   -0.1287   29.6173 C   0  0  0  0  0  0  0  0  0  0  0  0
    1.2304   -2.2810   33.0271 C   0  0  0  0  0  0  0  0  0  0  0  0
    0.9358   -2.2414   34.1244 O   0  0  0  0  0  0  0  0  0  0  0  0
    1.2232   -3.3891   32.0847 N   0  0  0  0  0  0  0  0  0  0  0  0
    0.7734   -4.6803   32.2216 C   0  0  0  0  0  0  0  0  0  0  0  0
    0.6398   -5.3107   30.8961 C   0  0  0  0  0  0  0  0  0  0  0  0
   -0.0315   -6.4519   30.7001 C   0  0  0  0  0  0  0  0  0  0  0  0
   -0.6631   -7.0663   31.7923 C   0  0  0  0  0  0  0  0  0  0  0  0
   -1.5069   -8.0674   31.8540 N   0  0  0  0  0  0  0  0  0  0  0  0
   -1.8444   -8.2258   33.1704 N   0  0  0  0  0  0  0  0  0  0  0  0
   -1.1578   -7.3581   33.8784 C   0  0  0  0  0  0  0  0  0  0  0  0
   -0.4152   -6.5502   33.0540 N   0  0  0  0  0  0  0  0  0  0  0  0
    0.3674   -5.3964   33.3055 C   0  0  0  0  0  0  0  0  0  0  0  0
    0.7191   -5.0247   34.9720 S   0  0  0  0  0  0  0  0  0  0  0  0
    1.8519   -6.3223   35.2766 C   0  0  0  0  0  0  0  0  0  0  0  0
    2.1668   -7.2691   34.4112 N   0  0  0  0  0  0  0  0  0  0  0  0
    3.0626   -8.1028   35.0371 N   0  0  0  0  0  0  0  0  0  0  0  0
    3.2423   -7.6200   36.2546 C   0  0  0  0  0  0  0  0  0  0  0  0
    4.1140   -8.2103   37.2141 C   0  0  0  0  0  0  0  0  0  0  0  0
    4.2572   -7.9595   38.5639 C   0  0  0  0  0  0  0  0  0  0  0  0
    5.2479   -8.8427   39.0615 C   0  0  0  0  0  0  0  0  0  0  0  0
    5.6917   -9.6012   38.0019 C   0  0  0  0  0  0  0  0  0  0  0  0
    5.0025   -9.2072   36.8850 N   0  0  0  0  0  0  0  0  0  0  0  0
    2.4871   -6.4951   36.4771 O   0  0  0  0  0  0  0  0  0  0  0  0
    3.0314    1.3720   32.1601 H   0  0  0  0  0  0  0  0  0  0  0  0
    2.5678    0.4533   33.5917 H   0  0  0  0  0  0  0  0  0  0  0  0
    1.1979    1.4167   33.1250 H   0  0  0  0  0  0  0  0  0  0  0  0
    0.4965    0.0061   32.1581 H   0  0  0  0  0  0  0  0  0  0  0  0
    2.5490   -0.0728   31.0483 H   0  0  0  0  0  0  0  0  0  0  0  0
    1.4334    2.8732   30.8395 H   0  0  0  0  0  0  0  0  0  0  0  0
    0.1923    3.6901   28.8655 H   0  0  0  0  0  0  0  0  0  0  0  0
   -1.0071    2.1083   27.3948 H   0  0  0  0  0  0  0  0  0  0  0  0
   -0.9617   -0.3265   27.8477 H   0  0  0  0  0  0  0  0  0  0  0  0
    0.2456   -1.1923   29.8272 H   0  0  0  0  0  0  0  0  0  0  0  0
    1.4720   -3.0473   31.1638 H   0  0  0  0  0  0  0  0  0  0  0  0
    1.1035   -4.8310   30.0366 H   0  0  0  0  0  0  0  0  0  0  0  0
   -0.1397   -6.8955   29.7228 H   0  0  0  0  0  0  0  0  0  0  0  0
   -1.1930   -7.2586   34.9533 H   0  0  0  0  0  0  0  0  0  0  0  0
    3.6972   -7.2316   39.1382 H   0  0  0  0  0  0  0  0  0  0  0  0
    5.5947   -8.9195   40.0845 H   0  0  0  0  0  0  0  0  0  0  0  0
    6.4329  -10.3881   37.9488 H   0  0  0  0  0  0  0  0  0  0  0  0
    5.1168   -9.5975   35.9577 H   0  0  0  0  0  0  0  0  0  0  0  0
  1  2  1  0
  2  3  1  0
  3  4  1  0
  4  5  2  0
  5  6  1  0
  6  7  2  0
  7  8  1  0
  8  9  2  0
  2 10  1  0
 10 11  2  0
 10 12  1  0
 12 13  1  0
 13 14  1  0
 14 15  2  0
 15 16  1  0
 16 17  2  0
 17 18  1  0
 18 19  2  0
 19 20  1  0
 20 21  1  0
 21 22  1  0
 22 23  1  0
 23 24  2  0
 24 25  1  0
 25 26  2  0
 26 27  1  0
 27 28  2  0
 28 29  1  0
 29 30  2  0
 30 31  1  0
 26 32  1  0
  9  4  1  0
 21 13  2  0
 32 23  1  0
 20 16  1  0
 31 27  1  0
  1 33  1  0
  1 34  1  0
  1 35  1  0
  3 36  1  0
  3 37  1  0
  5 38  1  0
  6 39  1  0
  7 40  1  0
  8 41  1  0
  9 42  1  0
 12 43  1  0
 14 44  1  0
 15 45  1  0
 19 46  1  0
 28 47  1  0
 29 48  1  0
 30 49  1  0
 31 50  1  0
M  END
>  <Energy>  (619) 
748.38892192156925

>  <compound_id>  (619) 
3788

>  <target_id>  (619) 
1

>  <reference_id>  (619) 
148

>  <inspiration_ids>  (619) 
[148, 196]

>  <energy_score>  (619) 
704.1983970243542

>  <distance_score>  (619) 
2.2717657697096394

>  <path>  (619) 
/opt/xchem-fragalysis-2/maxwin/BulkDock/SCRATCH/505735/C3788-P148/C3788-P148.minimised.mol

>  <scratch_subdir>  (619) 
/opt/xchem-fragalysis-2/maxwin/BulkDock/SCRATCH/505735/C3788-P148

>  <fragmenstein_runtime>  (619) 
10.729109764099121

>  <fragmenstein_outcome>  (619) 
too moved

>  <fragmenstein_mode>  (619) 
expansion

>  <fragmenstein_error>  (619) 


$$$$
C3788-P196
     RDKit          3D

 50 54  0  0  0  0  0  0  0  0999 V2000
    1.4657    0.1012   33.6271 C   0  0  0  0  0  0  0  0  0  0  0  0
    1.2772   -1.1826   33.4893 N   0  0  0  0  0  0  0  0  0  0  0  0
    1.4009    0.7408   33.1246 C   0  0  0  0  0  0  0  0  0  0  0  0
    0.5127    0.7441   31.6013 C   0  0  0  0  0  0  0  0  0  0  0  0
   -0.7038    0.0422   31.5240 C   0  0  0  0  0  0  0  0  0  0  0  0
   -1.3455   -0.0682   30.2937 C   0  0  0  0  0  0  0  0  0  0  0  0
   -0.7994    0.5413   29.1638 C   0  0  0  0  0  0  0  0  0  0  0  0
    0.3924    1.2639   29.2571 C   0  0  0  0  0  0  0  0  0  0  0  0
    1.0594    1.3713   30.4763 C   0  0  0  0  0  0  0  0  0  0  0  0
    1.6821   -2.3005   32.3809 C   0  0  0  0  0  0  0  0  0  0  0  0
    2.1655   -2.2224   31.3571 O   0  0  0  0  0  0  0  0  0  0  0  0
    1.1315   -3.4564   33.0818 N   0  0  0  0  0  0  0  0  0  0  0  0
    0.9585   -4.7495   32.6685 C   0  0  0  0  0  0  0  0  0  0  0  0
    1.3316   -5.0657   31.2929 C   0  0  0  0  0  0  0  0  0  0  0  0
    0.7845   -6.0918   30.6280 C   0  0  0  0  0  0  0  0  0  0  0  0
   -0.1066   -6.9523   31.3004 C   0  0  0  0  0  0  0  0  0  0  0  0
   -0.8387   -7.9560   30.8776 N   0  0  0  0  0  0  0  0  0  0  0  0
   -1.5081   -8.4553   31.9602 N   0  0  0  0  0  0  0  0  0  0  0  0
   -1.1622   -7.7525   33.0175 C   0  0  0  0  0  0  0  0  0  0  0  0
   -0.3000   -6.7492   32.6627 N   0  0  0  0  0  0  0  0  0  0  0  0
    0.2328   -5.6542   33.3742 C   0  0  0  0  0  0  0  0  0  0  0  0
   -0.3023   -5.3431   34.9960 S   0  0  0  0  0  0  0  0  0  0  0  0
    0.8566   -6.2665   35.9073 C   0  0  0  0  0  0  0  0  0  0  0  0
    0.6418   -6.5677   37.1680 N   0  0  0  0  0  0  0  0  0  0  0  0
    1.7506   -7.2378   37.6137 N   0  0  0  0  0  0  0  0  0  0  0  0
    2.5935   -7.3028   36.6059 C   0  0  0  0  0  0  0  0  0  0  0  0
    3.8713   -7.9293   36.7112 C   0  0  0  0  0  0  0  0  0  0  0  0
    4.3799   -8.6927   37.7469 C   0  0  0  0  0  0  0  0  0  0  0  0
    5.6777   -9.1162   37.3773 C   0  0  0  0  0  0  0  0  0  0  0  0
    5.9384   -8.5833   36.1353 C   0  0  0  0  0  0  0  0  0  0  0  0
    4.8464   -7.8461   35.7510 N   0  0  0  0  0  0  0  0  0  0  0  0
    2.0840   -6.7095   35.4677 O   0  0  0  0  0  0  0  0  0  0  0  0
    2.6613   -0.2832   33.8046 H   0  0  0  0  0  0  0  0  0  0  0  0
    1.8344    0.3985   34.8250 H   0  0  0  0  0  0  0  0  0  0  0  0
    0.4850   -0.0522   34.4105 H   0  0  0  0  0  0  0  0  0  0  0  0
    0.6890    1.6631   33.5994 H   0  0  0  0  0  0  0  0  0  0  0  0
    2.4374    1.1830   32.6205 H   0  0  0  0  0  0  0  0  0  0  0  0
   -1.1234   -0.4574   32.3919 H   0  0  0  0  0  0  0  0  0  0  0  0
   -2.2642   -0.6386   30.2043 H   0  0  0  0  0  0  0  0  0  0  0  0
   -1.2984    0.4514   28.2012 H   0  0  0  0  0  0  0  0  0  0  0  0
    0.8107    1.7242   28.3638 H   0  0  0  0  0  0  0  0  0  0  0  0
    2.0013    1.9084   30.5209 H   0  0  0  0  0  0  0  0  0  0  0  0
    0.7026   -3.1504   33.9491 H   0  0  0  0  0  0  0  0  0  0  0  0
    2.0345   -4.4282   30.7655 H   0  0  0  0  0  0  0  0  0  0  0  0
    1.0330   -6.2768   29.5925 H   0  0  0  0  0  0  0  0  0  0  0  0
   -1.5141   -7.9228   34.0257 H   0  0  0  0  0  0  0  0  0  0  0  0
    3.8555   -8.9305   38.6657 H   0  0  0  0  0  0  0  0  0  0  0  0
    6.3494   -9.7353   37.9584 H   0  0  0  0  0  0  0  0  0  0  0  0
    6.8127   -8.6495   35.5007 H   0  0  0  0  0  0  0  0  0  0  0  0
    4.7843   -7.2992   34.9032 H   0  0  0  0  0  0  0  0  0  0  0  0
  1  2  1  0
  2  3  1  0
  3  4  1  0
  4  5  2  0
  5  6  1  0
  6  7  2  0
  7  8  1  0
  8  9  2  0
  2 10  1  0
 10 11  2  0
 10 12  1  0
 12 13  1  0
 13 14  1  0
 14 15  2  0
 15 16  1  0
 16 17  2  0
 17 18  1  0
 18 19  2  0
 19 20  1  0
 20 21  1  0
 21 22  1  0
 22 23  1  0
 23 24  2  0
 24 25  1  0
 25 26  2  0
 26 27  1  0
 27 28  2  0
 28 29  1  0
 29 30  2  0
 30 31  1  0
 26 32  1  0
  9  4  1  0
 21 13  2  0
 32 23  1  0
 20 16  1  0
 31 27  1  0
  1 33  1  0
  1 34  1  0
  1 35  1  0
  3 36  1  0
  3 37  1  0
  5 38  1  0
  6 39  1  0
  7 40  1  0
  8 41  1  0
  9 42  1  0
 12 43  1  0
 14 44  1  0
 15 45  1  0
 19 46  1  0
 28 47  1  0
 29 48  1  0
 30 49  1  0
 31 50  1  0
M  END
>  <Energy>  (620) 
736.10196181851177

>  <compound_id>  (620) 
3788

>  <target_id>  (620) 
1

>  <reference_id>  (620) 
196

>  <inspiration_ids>  (620) 
[148, 196]

>  <energy_score>  (620) 
691.9114369213054

>  <distance_score>  (620) 
2.297662534187754

>  <path>  (620) 
/opt/xchem-fragalysis-2/maxwin/BulkDock/SCRATCH/505735/C3788-P196/C3788-P196.minimised.mol

>  <scratch_subdir>  (620) 
/opt/xchem-fragalysis-2/maxwin/BulkDock/SCRATCH/505735/C3788-P196

>  <fragmenstein_runtime>  (620) 
9.705490589141846

>  <fragmenstein_outcome>  (620) 
too moved

>  <fragmenstein_mode>  (620) 
expansion

>  <fragmenstein_error>  (620) 


$$$$
C4228-P148
     RDKit          3D

 53 57  0  0  0  0  0  0  0  0999 V2000
   -0.6875    0.7521   34.5718 C   0  0  0  0  0  0  0  0  0  0  0  0
   -0.0287   -0.4647   34.0461 N   0  0  0  0  0  0  0  0  0  0  0  0
   -1.2566   -0.4609   33.1125 C   0  0  0  0  0  0  0  0  0  0  0  0
   -0.8357   -0.8069   31.6833 C   0  0  0  0  0  0  0  0  0  0  0  0
    0.1066   -0.0095   31.0130 C   0  0  0  0  0  0  0  0  0  0  0  0
    0.4314   -0.2652   29.6814 C   0  0  0  0  0  0  0  0  0  0  0  0
   -0.1892   -1.3110   29.0041 C   0  0  0  0  0  0  0  0  0  0  0  0
   -1.1255   -2.1083   29.6586 C   0  0  0  0  0  0  0  0  0  0  0  0
   -1.4492   -1.8607   30.9934 C   0  0  0  0  0  0  0  0  0  0  0  0
    0.1408   -1.7886   34.6483 C   0  0  0  0  0  0  0  0  0  0  0  0
   -0.2820   -2.2232   35.6525 O   0  0  0  0  0  0  0  0  0  0  0  0
    1.0580   -2.3653   33.6885 N   0  0  0  0  0  0  0  0  0  0  0  0
    1.7967   -3.5929   33.7186 C   0  0  0  0  0  0  0  0  0  0  0  0
    1.0138   -4.6565   32.9901 C   0  0  0  0  0  0  0  0  0  0  0  0
    1.0838   -4.5787   31.5231 C   0  0  0  0  0  0  0  0  0  0  0  0
    0.4933   -5.4837   30.7252 C   0  0  0  0  0  0  0  0  0  0  0  0
   -0.2386   -6.5477   31.3025 C   0  0  0  0  0  0  0  0  0  0  0  0
   -0.9056   -7.5511   30.7715 N   0  0  0  0  0  0  0  0  0  0  0  0
   -1.4921   -8.2501   31.7938 N   0  0  0  0  0  0  0  0  0  0  0  0
   -1.1464   -7.6716   32.9235 C   0  0  0  0  0  0  0  0  0  0  0  0
   -0.3376   -6.5877   32.6867 N   0  0  0  0  0  0  0  0  0  0  0  0
    0.2978   -5.6700   33.5470 C   0  0  0  0  0  0  0  0  0  0  0  0
    0.1413   -5.8894   35.2728 S   0  0  0  0  0  0  0  0  0  0  0  0
    1.5486   -6.8904   35.5030 C   0  0  0  0  0  0  0  0  0  0  0  0
    2.1330   -7.5863   34.5469 N   0  0  0  0  0  0  0  0  0  0  0  0
    3.1961   -8.2371   35.1238 N   0  0  0  0  0  0  0  0  0  0  0  0
    3.1964   -7.9051   36.4039 C   0  0  0  0  0  0  0  0  0  0  0  0
    4.1338   -8.4128   37.3475 C   0  0  0  0  0  0  0  0  0  0  0  0
    4.1853   -8.2699   38.7193 C   0  0  0  0  0  0  0  0  0  0  0  0
    5.3008   -9.0097   39.1850 C   0  0  0  0  0  0  0  0  0  0  0  0
    5.9036   -9.5797   38.0864 C   0  0  0  0  0  0  0  0  0  0  0  0
    5.1910   -9.2098   36.9761 N   0  0  0  0  0  0  0  0  0  0  0  0
    2.1653   -7.0536   36.7119 O   0  0  0  0  0  0  0  0  0  0  0  0
   -1.6706    0.5821   35.0394 H   0  0  0  0  0  0  0  0  0  0  0  0
   -0.0590    1.0324   35.4295 H   0  0  0  0  0  0  0  0  0  0  0  0
   -0.6150    1.6198   33.8999 H   0  0  0  0  0  0  0  0  0  0  0  0
   -1.9451   -1.2398   33.4766 H   0  0  0  0  0  0  0  0  0  0  0  0
   -1.8708    0.4458   32.9514 H   0  0  0  0  0  0  0  0  0  0  0  0
    0.5818    0.8275   31.5208 H   0  0  0  0  0  0  0  0  0  0  0  0
    1.1481    0.3664   29.1621 H   0  0  0  0  0  0  0  0  0  0  0  0
    0.0350   -1.4909   27.9553 H   0  0  0  0  0  0  0  0  0  0  0  0
   -1.6204   -2.9050   29.1084 H   0  0  0  0  0  0  0  0  0  0  0  0
   -2.1974   -2.4797   31.4812 H   0  0  0  0  0  0  0  0  0  0  0  0
    1.2693   -1.6767   32.9780 H   0  0  0  0  0  0  0  0  0  0  0  0
    2.7695   -3.4215   33.2449 H   0  0  0  0  0  0  0  0  0  0  0  0
    1.9883   -3.8468   34.7643 H   0  0  0  0  0  0  0  0  0  0  0  0
    1.6162   -3.7400   31.0775 H   0  0  0  0  0  0  0  0  0  0  0  0
    0.5396   -5.3948   29.6460 H   0  0  0  0  0  0  0  0  0  0  0  0
   -1.4422   -7.9943   33.9109 H   0  0  0  0  0  0  0  0  0  0  0  0
    3.4850   -7.7099   39.3273 H   0  0  0  0  0  0  0  0  0  0  0  0
    5.6229   -9.1201   40.2131 H   0  0  0  0  0  0  0  0  0  0  0  0
    6.7726  -10.2192   38.0013 H   0  0  0  0  0  0  0  0  0  0  0  0
    5.3972   -9.4913   36.0254 H   0  0  0  0  0  0  0  0  0  0  0  0
  1  2  1  0
  2  3  1  0
  3  4  1  0
  4  5  2  0
  5  6  1  0
  6  7  2  0
  7  8  1  0
  8  9  2  0
  2 10  1  0
 10 11  2  0
 10 12  1  0
 12 13  1  0
 13 14  1  0
 14 15  1  0
 15 16  2  0
 16 17  1  0
 17 18  2  0
 18 19  1  0
 19 20  2  0
 20 21  1  0
 21 22  1  0
 22 23  1  0
 23 24  1  0
 24 25  2  0
 25 26  1  0
 26 27  2  0
 27 28  1  0
 28 29  2  0
 29 30  1  0
 30 31  2  0
 31 32  1  0
 27 33  1  0
  9  4  1  0
 22 14  2  0
 33 24  1  0
 21 17  1  0
 32 28  1  0
  1 34  1  0
  1 35  1  0
  1 36  1  0
  3 37  1  0
  3 38  1  0
  5 39  1  0
  6 40  1  0
  7 41  1  0
  8 42  1  0
  9 43  1  0
 12 44  1  0
 13 45  1  0
 13 46  1  0
 15 47  1  0
 16 48  1  0
 20 49  1  0
 29 50  1  0
 30 51  1  0
 31 52  1  0
 32 53  1  0
M  END
>  <Energy>  (621) 
36.549498085985554

>  <compound_id>  (621) 
4228

>  <target_id>  (621) 
1

>  <reference_id>  (621) 
148

>  <inspiration_ids>  (621) 
[148, 197]

>  <energy_score>  (621) 
17.412948402374763

>  <distance_score>  (621) 
1.95588055221155

>  <path>  (621) 
/opt/xchem-fragalysis-2/maxwin/BulkDock/SCRATCH/505735/C4228-P148/C4228-P148.minimised.mol

>  <scratch_subdir>  (621) 
/opt/xchem-fragalysis-2/maxwin/BulkDock/SCRATCH/505735/C4228-P148

>  <fragmenstein_runtime>  (621) 
11.323973894119263

>  <fragmenstein_outcome>  (621) 
too moved

>  <fragmenstein_mode>  (621) 
expansion

>  <fragmenstein_error>  (621) 


$$$$
C4228-P197
     RDKit          3D

 53 57  0  0  0  0  0  0  0  0999 V2000
   -0.2685    1.1619   32.5676 C   0  0  0  0  0  0  0  0  0  0  0  0
    0.2909   -0.2000   32.5138 N   0  0  0  0  0  0  0  0  0  0  0  0
   -0.8649   -0.3516   31.4848 C   0  0  0  0  0  0  0  0  0  0  0  0
   -0.3260   -0.8923   30.1600 C   0  0  0  0  0  0  0  0  0  0  0  0
    0.6731   -0.1993   29.4624 C   0  0  0  0  0  0  0  0  0  0  0  0
    1.1646   -0.6923   28.2527 C   0  0  0  0  0  0  0  0  0  0  0  0
    0.6456   -1.8676   27.7164 C   0  0  0  0  0  0  0  0  0  0  0  0
   -0.3686   -2.5466   28.3859 C   0  0  0  0  0  0  0  0  0  0  0  0
   -0.8543   -2.0636   29.6015 C   0  0  0  0  0  0  0  0  0  0  0  0
    0.2603   -1.3198   33.5429 C   0  0  0  0  0  0  0  0  0  0  0  0
   -0.2682   -1.3787   34.5504 O   0  0  0  0  0  0  0  0  0  0  0  0
    1.2290   -2.3009   32.8721 N   0  0  0  0  0  0  0  0  0  0  0  0
    1.8124   -3.5182   33.3655 C   0  0  0  0  0  0  0  0  0  0  0  0
    1.0325   -4.6906   32.8240 C   0  0  0  0  0  0  0  0  0  0  0  0
    1.0297   -4.7949   31.3565 C   0  0  0  0  0  0  0  0  0  0  0  0
    0.3632   -5.7580   30.7033 C   0  0  0  0  0  0  0  0  0  0  0  0
   -0.3582   -6.7248   31.4362 C   0  0  0  0  0  0  0  0  0  0  0  0
   -1.0931   -7.7471   31.0560 N   0  0  0  0  0  0  0  0  0  0  0  0
   -1.5675   -8.3558   32.1876 N   0  0  0  0  0  0  0  0  0  0  0  0
   -1.1109   -7.6903   33.2266 C   0  0  0  0  0  0  0  0  0  0  0  0
   -0.3322   -6.6366   32.8218 N   0  0  0  0  0  0  0  0  0  0  0  0
    0.3717   -5.6437   33.5355 C   0  0  0  0  0  0  0  0  0  0  0  0
    0.3767   -5.7063   35.2827 S   0  0  0  0  0  0  0  0  0  0  0  0
    1.7272   -6.7964   35.4704 C   0  0  0  0  0  0  0  0  0  0  0  0
    2.2731   -7.4889   34.4889 N   0  0  0  0  0  0  0  0  0  0  0  0
    3.2960   -8.2204   35.0390 N   0  0  0  0  0  0  0  0  0  0  0  0
    3.3135   -7.9398   36.3306 C   0  0  0  0  0  0  0  0  0  0  0  0
    4.1991   -8.5694   37.2519 C   0  0  0  0  0  0  0  0  0  0  0  0
    4.2113   -8.5539   38.6316 C   0  0  0  0  0  0  0  0  0  0  0  0
    5.2539   -9.4135   39.0599 C   0  0  0  0  0  0  0  0  0  0  0  0
    5.8571   -9.9228   37.9320 C   0  0  0  0  0  0  0  0  0  0  0  0
    5.2169   -9.3985   36.8399 N   0  0  0  0  0  0  0  0  0  0  0  0
    2.3325   -7.0435   36.6729 O   0  0  0  0  0  0  0  0  0  0  0  0
   -1.2618    1.2164   33.0411 H   0  0  0  0  0  0  0  0  0  0  0  0
    0.3656    1.6606   33.3159 H   0  0  0  0  0  0  0  0  0  0  0  0
   -0.1101    1.7698   31.6649 H   0  0  0  0  0  0  0  0  0  0  0  0
   -1.5318   -1.1180   31.9108 H   0  0  0  0  0  0  0  0  0  0  0  0
   -1.5552    0.4635   31.1884 H   0  0  0  0  0  0  0  0  0  0  0  0
    1.0913    0.7220   29.8602 H   0  0  0  0  0  0  0  0  0  0  0  0
    1.9452   -0.1523   27.7226 H   0  0  0  0  0  0  0  0  0  0  0  0
    1.0156   -2.2464   26.7676 H   0  0  0  0  0  0  0  0  0  0  0  0
   -0.7978   -3.4454   27.9491 H   0  0  0  0  0  0  0  0  0  0  0  0
   -1.6558   -2.6065   30.0960 H   0  0  0  0  0  0  0  0  0  0  0  0
    1.4479   -1.9766   31.9382 H   0  0  0  0  0  0  0  0  0  0  0  0
    1.8103   -3.4650   34.4563 H   0  0  0  0  0  0  0  0  0  0  0  0
    2.8537   -3.5566   33.0285 H   0  0  0  0  0  0  0  0  0  0  0  0
    1.5794   -4.0522   30.7812 H   0  0  0  0  0  0  0  0  0  0  0  0
    0.3606   -5.7985   29.6224 H   0  0  0  0  0  0  0  0  0  0  0  0
   -1.3102   -7.9294   34.2611 H   0  0  0  0  0  0  0  0  0  0  0  0
    3.5248   -8.0083   39.2681 H   0  0  0  0  0  0  0  0  0  0  0  0
    5.5272   -9.6409   40.0829 H   0  0  0  0  0  0  0  0  0  0  0  0
    6.6830  -10.6121   37.8142 H   0  0  0  0  0  0  0  0  0  0  0  0
    5.4373   -9.6073   35.8738 H   0  0  0  0  0  0  0  0  0  0  0  0
  1  2  1  0
  2  3  1  0
  3  4  1  0
  4  5  2  0
  5  6  1  0
  6  7  2  0
  7  8  1  0
  8  9  2  0
  2 10  1  0
 10 11  2  0
 10 12  1  0
 12 13  1  0
 13 14  1  0
 14 15  1  0
 15 16  2  0
 16 17  1  0
 17 18  2  0
 18 19  1  0
 19 20  2  0
 20 21  1  0
 21 22  1  0
 22 23  1  0
 23 24  1  0
 24 25  2  0
 25 26  1  0
 26 27  2  0
 27 28  1  0
 28 29  2  0
 29 30  1  0
 30 31  2  0
 31 32  1  0
 27 33  1  0
  9  4  1  0
 22 14  2  0
 33 24  1  0
 21 17  1  0
 32 28  1  0
  1 34  1  0
  1 35  1  0
  1 36  1  0
  3 37  1  0
  3 38  1  0
  5 39  1  0
  6 40  1  0
  7 41  1  0
  8 42  1  0
  9 43  1  0
 12 44  1  0
 13 45  1  0
 13 46  1  0
 15 47  1  0
 16 48  1  0
 20 49  1  0
 29 50  1  0
 30 51  1  0
 31 52  1  0
 32 53  1  0
M  END
>  <Energy>  (622) 
56.003892696982092

>  <compound_id>  (622) 
4228

>  <target_id>  (622) 
1

>  <reference_id>  (622) 
197

>  <inspiration_ids>  (622) 
[148, 197]

>  <energy_score>  (622) 
30.236125206453146

>  <distance_score>  (622) 
1.404681165099342

>  <path>  (622) 
/opt/xchem-fragalysis-2/maxwin/BulkDock/SCRATCH/505735/C4228-P197/C4228-P197.minimised.mol

>  <scratch_subdir>  (622) 
/opt/xchem-fragalysis-2/maxwin/BulkDock/SCRATCH/505735/C4228-P197

>  <fragmenstein_runtime>  (622) 
7.506168365478516

>  <fragmenstein_outcome>  (622) 
too moved

>  <fragmenstein_mode>  (622) 
expansion

>  <fragmenstein_error>  (622) 


$$$$
C3908-P148
     RDKit          3D

 48 52  0  0  0  0  0  0  0  0999 V2000
    4.6928   -3.5268   31.2344 C   0  0  0  0  0  0  0  0  0  0  0  0
    3.4028   -4.2132   31.5456 N   0  0  0  0  0  0  0  0  0  0  0  0
    2.8652   -2.8602   31.0448 C   0  0  0  0  0  0  0  0  0  0  0  0
    1.3438   -2.9370   30.9177 C   0  0  0  0  0  0  0  0  0  0  0  0
    0.5768   -2.5715   32.0337 C   0  0  0  0  0  0  0  0  0  0  0  0
   -0.7999   -2.6904   32.0234 C   0  0  0  0  0  0  0  0  0  0  0  0
   -1.4256   -3.1391   30.8776 C   0  0  0  0  0  0  0  0  0  0  0  0
   -0.6830   -3.5206   29.7600 C   0  0  0  0  0  0  0  0  0  0  0  0
    0.7029   -3.4175   29.7707 C   0  0  0  0  0  0  0  0  0  0  0  0
    2.7800   -4.5938   32.8827 C   0  0  0  0  0  0  0  0  0  0  0  0
    3.1349   -4.3631   33.9799 O   0  0  0  0  0  0  0  0  0  0  0  0
    1.5524   -5.5026   32.6187 C   0  0  0  0  0  0  0  0  0  0  0  0
    1.3017   -5.9666   31.2434 C   0  0  0  0  0  0  0  0  0  0  0  0
    0.2455   -6.7035   30.8828 C   0  0  0  0  0  0  0  0  0  0  0  0
   -0.6387   -7.1448   31.8716 C   0  0  0  0  0  0  0  0  0  0  0  0
   -1.6826   -7.9314   31.8013 N   0  0  0  0  0  0  0  0  0  0  0  0
   -2.1367   -8.1035   33.0795 N   0  0  0  0  0  0  0  0  0  0  0  0
   -1.3642   -7.4152   33.8881 C   0  0  0  0  0  0  0  0  0  0  0  0
   -0.3889   -6.7639   33.1789 N   0  0  0  0  0  0  0  0  0  0  0  0
    0.6816   -5.9340   33.5782 C   0  0  0  0  0  0  0  0  0  0  0  0
    0.8362   -5.6338   35.2970 S   0  0  0  0  0  0  0  0  0  0  0  0
    2.0343   -6.8721   35.5735 C   0  0  0  0  0  0  0  0  0  0  0  0
    2.4354   -7.7222   34.6459 N   0  0  0  0  0  0  0  0  0  0  0  0
    3.4124   -8.4931   35.2098 N   0  0  0  0  0  0  0  0  0  0  0  0
    3.5135   -8.1091   36.4709 C   0  0  0  0  0  0  0  0  0  0  0  0
    4.3729   -8.7478   37.4062 C   0  0  0  0  0  0  0  0  0  0  0  0
    4.4322   -8.6441   38.7800 C   0  0  0  0  0  0  0  0  0  0  0  0
    5.4250   -9.5486   39.2317 C   0  0  0  0  0  0  0  0  0  0  0  0
    5.9526  -10.1704   38.1222 C   0  0  0  0  0  0  0  0  0  0  0  0
    5.3127   -9.6730   37.0184 N   0  0  0  0  0  0  0  0  0  0  0  0
    2.6522   -7.0846   36.7722 O   0  0  0  0  0  0  0  0  0  0  0  0
    4.9405   -2.6573   31.8624 H   0  0  0  0  0  0  0  0  0  0  0  0
    4.9110   -3.4176   30.1622 H   0  0  0  0  0  0  0  0  0  0  0  0
    5.4405   -4.2631   31.5660 H   0  0  0  0  0  0  0  0  0  0  0  0
    3.0611   -2.0448   31.7622 H   0  0  0  0  0  0  0  0  0  0  0  0
    3.1860   -2.5757   30.0276 H   0  0  0  0  0  0  0  0  0  0  0  0
    1.0560   -2.1921   32.9363 H   0  0  0  0  0  0  0  0  0  0  0  0
   -1.3855   -2.3839   32.8872 H   0  0  0  0  0  0  0  0  0  0  0  0
   -2.5066   -3.0985   30.8454 H   0  0  0  0  0  0  0  0  0  0  0  0
   -1.1843   -3.8266   28.8475 H   0  0  0  0  0  0  0  0  0  0  0  0
    1.2698   -3.6869   28.8842 H   0  0  0  0  0  0  0  0  0  0  0  0
    2.0027   -5.6947   30.4621 H   0  0  0  0  0  0  0  0  0  0  0  0
    0.0775   -7.0074   29.8609 H   0  0  0  0  0  0  0  0  0  0  0  0
   -1.4615   -7.3730   34.9626 H   0  0  0  0  0  0  0  0  0  0  0  0
    3.8106   -8.0077   39.3980 H   0  0  0  0  0  0  0  0  0  0  0  0
    5.7169   -9.7313   40.2584 H   0  0  0  0  0  0  0  0  0  0  0  0
    6.7220  -10.9253   38.0263 H   0  0  0  0  0  0  0  0  0  0  0  0
    5.4819   -9.9577   36.0616 H   0  0  0  0  0  0  0  0  0  0  0  0
  1  2  1  0
  2  3  1  0
  3  4  1  0
  4  5  2  0
  5  6  1  0
  6  7  2  0
  7  8  1  0
  8  9  2  0
  2 10  1  0
 10 11  2  0
 10 12  1  0
 12 13  1  0
 13 14  2  0
 14 15  1  0
 15 16  2  0
 16 17  1  0
 17 18  2  0
 18 19  1  0
 19 20  1  0
 20 21  1  0
 21 22  1  0
 22 23  2  0
 23 24  1  0
 24 25  2  0
 25 26  1  0
 26 27  2  0
 27 28  1  0
 28 29  2  0
 29 30  1  0
 25 31  1  0
  9  4  1  0
 20 12  2  0
 31 22  1  0
 19 15  1  0
 30 26  1  0
  1 32  1  0
  1 33  1  0
  1 34  1  0
  3 35  1  0
  3 36  1  0
  5 37  1  0
  6 38  1  0
  7 39  1  0
  8 40  1  0
  9 41  1  0
 13 42  1  0
 14 43  1  0
 18 44  1  0
 27 45  1  0
 28 46  1  0
 29 47  1  0
 30 48  1  0
M  END
>  <Energy>  (623) 
125.53216748159763

>  <compound_id>  (623) 
3908

>  <target_id>  (623) 
1

>  <reference_id>  (623) 
148

>  <inspiration_ids>  (623) 
[148, 200]

>  <energy_score>  (623) 
39.67322605638837

>  <distance_score>  (623) 
2.6605798096257622

>  <path>  (623) 
/opt/xchem-fragalysis-2/maxwin/BulkDock/SCRATCH/505735/C3908-P148/C3908-P148.minimised.mol

>  <scratch_subdir>  (623) 
/opt/xchem-fragalysis-2/maxwin/BulkDock/SCRATCH/505735/C3908-P148

>  <fragmenstein_runtime>  (623) 
5.356701135635376

>  <fragmenstein_outcome>  (623) 
too moved

>  <fragmenstein_mode>  (623) 
expansion

>  <fragmenstein_error>  (623) 


$$$$
C3908-P200
     RDKit          3D

 48 52  0  0  0  0  0  0  0  0999 V2000
    4.2613   -4.1904   34.4197 C   0  0  0  0  0  0  0  0  0  0  0  0
    2.8236   -4.3362   34.0568 N   0  0  0  0  0  0  0  0  0  0  0  0
    3.4054   -3.9328   32.6735 C   0  0  0  0  0  0  0  0  0  0  0  0
    2.4587   -4.2772   31.5061 C   0  0  0  0  0  0  0  0  0  0  0  0
    2.0893   -3.2655   30.6072 C   0  0  0  0  0  0  0  0  0  0  0  0
    1.1586   -3.5151   29.6119 C   0  0  0  0  0  0  0  0  0  0  0  0
    0.6311   -4.7905   29.4774 C   0  0  0  0  0  0  0  0  0  0  0  0
    1.0677   -5.8413   30.2779 C   0  0  0  0  0  0  0  0  0  0  0  0
    1.9592   -5.5731   31.3129 C   0  0  0  0  0  0  0  0  0  0  0  0
    1.6172   -3.4777   34.4202 C   0  0  0  0  0  0  0  0  0  0  0  0
    1.5568   -2.4596   35.0040 O   0  0  0  0  0  0  0  0  0  0  0  0
    0.4072   -4.2299   33.9760 C   0  0  0  0  0  0  0  0  0  0  0  0
   -0.3092   -3.7406   32.8127 C   0  0  0  0  0  0  0  0  0  0  0  0
   -1.0543   -4.5691   32.0675 C   0  0  0  0  0  0  0  0  0  0  0  0
   -1.1330   -5.9409   32.4220 C   0  0  0  0  0  0  0  0  0  0  0  0
   -1.5541   -7.0124   31.7825 N   0  0  0  0  0  0  0  0  0  0  0  0
   -1.5142   -8.0592   32.6653 N   0  0  0  0  0  0  0  0  0  0  0  0
   -1.0439   -7.6024   33.8060 C   0  0  0  0  0  0  0  0  0  0  0  0
   -0.6764   -6.2913   33.6806 N   0  0  0  0  0  0  0  0  0  0  0  0
    0.0798   -5.4361   34.4946 C   0  0  0  0  0  0  0  0  0  0  0  0
    0.4723   -5.8937   36.1134 S   0  0  0  0  0  0  0  0  0  0  0  0
    1.8524   -6.8995   35.8622 C   0  0  0  0  0  0  0  0  0  0  0  0
    2.2167   -7.4983   34.7434 N   0  0  0  0  0  0  0  0  0  0  0  0
    3.3261   -8.2621   35.0574 N   0  0  0  0  0  0  0  0  0  0  0  0
    3.5522   -8.0875   36.3487 C   0  0  0  0  0  0  0  0  0  0  0  0
    4.5182   -8.7994   37.1125 C   0  0  0  0  0  0  0  0  0  0  0  0
    4.6869   -8.8388   38.4828 C   0  0  0  0  0  0  0  0  0  0  0  0
    5.7212   -9.7638   38.7592 C   0  0  0  0  0  0  0  0  0  0  0  0
    6.1622  -10.2566   37.5515 C   0  0  0  0  0  0  0  0  0  0  0  0
    5.4308   -9.6604   36.5564 N   0  0  0  0  0  0  0  0  0  0  0  0
    2.6608   -7.2234   36.9100 O   0  0  0  0  0  0  0  0  0  0  0  0
    4.2473   -4.3136   35.5132 H   0  0  0  0  0  0  0  0  0  0  0  0
    4.6936   -3.1835   34.3097 H   0  0  0  0  0  0  0  0  0  0  0  0
    4.8946   -5.0244   34.0833 H   0  0  0  0  0  0  0  0  0  0  0  0
    3.5421   -2.8386   32.6539 H   0  0  0  0  0  0  0  0  0  0  0  0
    4.3257   -4.4494   32.3465 H   0  0  0  0  0  0  0  0  0  0  0  0
    2.4828   -2.2560   30.7118 H   0  0  0  0  0  0  0  0  0  0  0  0
    0.8281   -2.7155   28.9519 H   0  0  0  0  0  0  0  0  0  0  0  0
   -0.1660   -4.9271   28.7612 H   0  0  0  0  0  0  0  0  0  0  0  0
    0.6370   -6.8329   30.1648 H   0  0  0  0  0  0  0  0  0  0  0  0
    2.2048   -6.3505   32.0287 H   0  0  0  0  0  0  0  0  0  0  0  0
   -0.2129   -2.6890   32.5570 H   0  0  0  0  0  0  0  0  0  0  0  0
   -1.5492   -4.1962   31.1827 H   0  0  0  0  0  0  0  0  0  0  0  0
   -0.9024   -8.1750   34.7096 H   0  0  0  0  0  0  0  0  0  0  0  0
    4.1066   -8.2848   39.2114 H   0  0  0  0  0  0  0  0  0  0  0  0
    6.0976  -10.0454   39.7350 H   0  0  0  0  0  0  0  0  0  0  0  0
    6.9301  -10.9818   37.3158 H   0  0  0  0  0  0  0  0  0  0  0  0
    5.5252   -9.8483   35.5659 H   0  0  0  0  0  0  0  0  0  0  0  0
  1  2  1  0
  2  3  1  0
  3  4  1  0
  4  5  2  0
  5  6  1  0
  6  7  2  0
  7  8  1  0
  8  9  2  0
  2 10  1  0
 10 11  2  0
 10 12  1  0
 12 13  1  0
 13 14  2  0
 14 15  1  0
 15 16  2  0
 16 17  1  0
 17 18  2  0
 18 19  1  0
 19 20  1  0
 20 21  1  0
 21 22  1  0
 22 23  2  0
 23 24  1  0
 24 25  2  0
 25 26  1  0
 26 27  2  0
 27 28  1  0
 28 29  2  0
 29 30  1  0
 25 31  1  0
  9  4  1  0
 20 12  2  0
 31 22  1  0
 19 15  1  0
 30 26  1  0
  1 32  1  0
  1 33  1  0
  1 34  1  0
  3 35  1  0
  3 36  1  0
  5 37  1  0
  6 38  1  0
  7 39  1  0
  8 40  1  0
  9 41  1  0
 13 42  1  0
 14 43  1  0
 18 44  1  0
 27 45  1  0
 28 46  1  0
 29 47  1  0
 30 48  1  0
M  END
>  <Energy>  (624) 
133.93293083841095

>  <compound_id>  (624) 
3908

>  <target_id>  (624) 
1

>  <reference_id>  (624) 
200

>  <inspiration_ids>  (624) 
[148, 200]

>  <energy_score>  (624) 
48.07398941319984

>  <distance_score>  (624) 
2.9340186777258297

>  <path>  (624) 
/opt/xchem-fragalysis-2/maxwin/BulkDock/SCRATCH/505735/C3908-P200/C3908-P200.minimised.mol

>  <scratch_subdir>  (624) 
/opt/xchem-fragalysis-2/maxwin/BulkDock/SCRATCH/505735/C3908-P200

>  <fragmenstein_runtime>  (624) 
6.477773427963257

>  <fragmenstein_outcome>  (624) 
too moved

>  <fragmenstein_mode>  (624) 
expansion

>  <fragmenstein_error>  (624) 


$$$$
C3908-P148
     RDKit          3D

 48 52  0  0  0  0  0  0  0  0999 V2000
    4.6364   -3.4648   31.2105 C   0  0  0  0  0  0  0  0  0  0  0  0
    3.3594   -4.1705   31.5313 N   0  0  0  0  0  0  0  0  0  0  0  0
    2.8002   -2.8099   31.0804 C   0  0  0  0  0  0  0  0  0  0  0  0
    1.2768   -2.9016   30.9774 C   0  0  0  0  0  0  0  0  0  0  0  0
    0.5198   -2.5659   32.1099 C   0  0  0  0  0  0  0  0  0  0  0  0
   -0.8570   -2.6949   32.1137 C   0  0  0  0  0  0  0  0  0  0  0  0
   -1.4939   -3.1241   30.9665 C   0  0  0  0  0  0  0  0  0  0  0  0
   -0.7602   -3.4759   29.8333 C   0  0  0  0  0  0  0  0  0  0  0  0
    0.6252   -3.3653   29.8301 C   0  0  0  0  0  0  0  0  0  0  0  0
    2.7703   -4.5927   32.8701 C   0  0  0  0  0  0  0  0  0  0  0  0
    3.1477   -4.3891   33.9648 O   0  0  0  0  0  0  0  0  0  0  0  0
    1.5465   -5.5025   32.6044 C   0  0  0  0  0  0  0  0  0  0  0  0
    1.2931   -5.9558   31.2257 C   0  0  0  0  0  0  0  0  0  0  0  0
    0.2387   -6.6952   30.8653 C   0  0  0  0  0  0  0  0  0  0  0  0
   -0.6404   -7.1461   31.8548 C   0  0  0  0  0  0  0  0  0  0  0  0
   -1.6823   -7.9354   31.7831 N   0  0  0  0  0  0  0  0  0  0  0  0
   -2.1352   -8.1120   33.0612 N   0  0  0  0  0  0  0  0  0  0  0  0
   -1.3634   -7.4249   33.8714 C   0  0  0  0  0  0  0  0  0  0  0  0
   -0.3898   -6.7698   33.1634 N   0  0  0  0  0  0  0  0  0  0  0  0
    0.6789   -5.9390   33.5642 C   0  0  0  0  0  0  0  0  0  0  0  0
    0.8315   -5.6368   35.2831 S   0  0  0  0  0  0  0  0  0  0  0  0
    2.0302   -6.8732   35.5640 C   0  0  0  0  0  0  0  0  0  0  0  0
    2.4316   -7.7261   34.6395 N   0  0  0  0  0  0  0  0  0  0  0  0
    3.4089   -8.4948   35.2060 N   0  0  0  0  0  0  0  0  0  0  0  0
    3.5095   -8.1069   36.4660 C   0  0  0  0  0  0  0  0  0  0  0  0
    4.3688   -8.7430   37.4033 C   0  0  0  0  0  0  0  0  0  0  0  0
    4.4263   -8.6379   38.7770 C   0  0  0  0  0  0  0  0  0  0  0  0
    5.4196   -9.5410   39.2309 C   0  0  0  0  0  0  0  0  0  0  0  0
    5.9495  -10.1630   38.1227 C   0  0  0  0  0  0  0  0  0  0  0  0
    5.3103   -9.6674   37.0176 N   0  0  0  0  0  0  0  0  0  0  0  0
    2.6478   -7.0817   36.7637 O   0  0  0  0  0  0  0  0  0  0  0  0
    5.3972   -4.2028   31.5066 H   0  0  0  0  0  0  0  0  0  0  0  0
    4.8905   -2.6092   31.8548 H   0  0  0  0  0  0  0  0  0  0  0  0
    4.8299   -3.3265   30.1369 H   0  0  0  0  0  0  0  0  0  0  0  0
    3.0987   -2.4899   30.0671 H   0  0  0  0  0  0  0  0  0  0  0  0
    2.9996   -2.0150   31.8196 H   0  0  0  0  0  0  0  0  0  0  0  0
    1.0073   -2.2017   33.0143 H   0  0  0  0  0  0  0  0  0  0  0  0
   -1.4341   -2.4124   32.9913 H   0  0  0  0  0  0  0  0  0  0  0  0
   -2.5760   -3.0944   30.9473 H   0  0  0  0  0  0  0  0  0  0  0  0
   -1.2676   -3.7637   28.9183 H   0  0  0  0  0  0  0  0  0  0  0  0
    1.1827   -3.6124   28.9310 H   0  0  0  0  0  0  0  0  0  0  0  0
    1.9880   -5.6717   30.4429 H   0  0  0  0  0  0  0  0  0  0  0  0
    0.0660   -6.9912   29.8420 H   0  0  0  0  0  0  0  0  0  0  0  0
   -1.4597   -7.3864   34.9462 H   0  0  0  0  0  0  0  0  0  0  0  0
    3.8030   -8.0018   39.3936 H   0  0  0  0  0  0  0  0  0  0  0  0
    5.7105   -9.7221   40.2583 H   0  0  0  0  0  0  0  0  0  0  0  0
    6.7199  -10.9172   38.0286 H   0  0  0  0  0  0  0  0  0  0  0  0
    5.4813   -9.9528   36.0612 H   0  0  0  0  0  0  0  0  0  0  0  0
  1  2  1  0
  2  3  1  0
  3  4  1  0
  4  5  2  0
  5  6  1  0
  6  7  2  0
  7  8  1  0
  8  9  2  0
  2 10  1  0
 10 11  2  0
 10 12  1  0
 12 13  1  0
 13 14  2  0
 14 15  1  0
 15 16  2  0
 16 17  1  0
 17 18  2  0
 18 19  1  0
 19 20  1  0
 20 21  1  0
 21 22  1  0
 22 23  2  0
 23 24  1  0
 24 25  2  0
 25 26  1  0
 26 27  2  0
 27 28  1  0
 28 29  2  0
 29 30  1  0
 25 31  1  0
  9  4  1  0
 20 12  2  0
 31 22  1  0
 19 15  1  0
 30 26  1  0
  1 32  1  0
  1 33  1  0
  1 34  1  0
  3 35  1  0
  3 36  1  0
  5 37  1  0
  6 38  1  0
  7 39  1  0
  8 40  1  0
  9 41  1  0
 13 42  1  0
 14 43  1  0
 18 44  1  0
 27 45  1  0
 28 46  1  0
 29 47  1  0
 30 48  1  0
M  END
>  <Energy>  (625) 
124.58865624375878

>  <compound_id>  (625) 
3908

>  <target_id>  (625) 
1

>  <reference_id>  (625) 
148

>  <inspiration_ids>  (625) 
[148, 201]

>  <energy_score>  (625) 
38.72971481854903

>  <distance_score>  (625) 
2.590375744389244

>  <path>  (625) 
/opt/xchem-fragalysis-2/maxwin/BulkDock/SCRATCH/505735/C3908-P148/C3908-P148.minimised.mol

>  <scratch_subdir>  (625) 
/opt/xchem-fragalysis-2/maxwin/BulkDock/SCRATCH/505735/C3908-P148

>  <fragmenstein_runtime>  (625) 
5.766940355300903

>  <fragmenstein_outcome>  (625) 
too moved

>  <fragmenstein_mode>  (625) 
expansion

>  <fragmenstein_error>  (625) 


$$$$
C3908-P201
     RDKit          3D

 48 52  0  0  0  0  0  0  0  0999 V2000
    4.3192   -3.9788   29.7706 C   0  0  0  0  0  0  0  0  0  0  0  0
    3.1682   -4.6370   30.4524 N   0  0  0  0  0  0  0  0  0  0  0  0
    2.4782   -3.3087   29.9877 C   0  0  0  0  0  0  0  0  0  0  0  0
    1.1266   -3.1338   30.6713 C   0  0  0  0  0  0  0  0  0  0  0  0
    1.0919   -2.2896   31.7889 C   0  0  0  0  0  0  0  0  0  0  0  0
    0.0184   -2.3034   32.6664 C   0  0  0  0  0  0  0  0  0  0  0  0
   -1.0049   -3.2063   32.4741 C   0  0  0  0  0  0  0  0  0  0  0  0
   -0.9847   -4.0234   31.3568 C   0  0  0  0  0  0  0  0  0  0  0  0
    0.0092   -3.9137   30.3834 C   0  0  0  0  0  0  0  0  0  0  0  0
    2.9113   -4.9057   31.9412 C   0  0  0  0  0  0  0  0  0  0  0  0
    3.5279   -4.5817   32.8908 O   0  0  0  0  0  0  0  0  0  0  0  0
    1.6791   -5.8306   32.0418 C   0  0  0  0  0  0  0  0  0  0  0  0
    1.2535   -6.5076   30.7944 C   0  0  0  0  0  0  0  0  0  0  0  0
    0.1843   -7.3029   30.7052 C   0  0  0  0  0  0  0  0  0  0  0  0
   -0.5808   -7.5257   31.8518 C   0  0  0  0  0  0  0  0  0  0  0  0
   -1.6637   -8.2356   32.0183 N   0  0  0  0  0  0  0  0  0  0  0  0
   -1.9603   -8.1886   33.3486 N   0  0  0  0  0  0  0  0  0  0  0  0
   -1.0774   -7.4254   33.9504 C   0  0  0  0  0  0  0  0  0  0  0  0
   -0.1718   -6.9443   33.0424 N   0  0  0  0  0  0  0  0  0  0  0  0
    0.9462   -6.0852   33.1683 C   0  0  0  0  0  0  0  0  0  0  0  0
    1.2718   -5.4530   34.7743 S   0  0  0  0  0  0  0  0  0  0  0  0
    2.2612   -6.7857   35.3008 C   0  0  0  0  0  0  0  0  0  0  0  0
    2.5966   -7.7854   34.5120 N   0  0  0  0  0  0  0  0  0  0  0  0
    3.4272   -8.5992   35.2217 N   0  0  0  0  0  0  0  0  0  0  0  0
    3.5229   -8.0761   36.4303 C   0  0  0  0  0  0  0  0  0  0  0  0
    4.2982   -8.6845   37.4557 C   0  0  0  0  0  0  0  0  0  0  0  0
    4.3330   -8.4636   38.8155 C   0  0  0  0  0  0  0  0  0  0  0  0
    5.2479   -9.3928   39.3729 C   0  0  0  0  0  0  0  0  0  0  0  0
    5.7557  -10.1463   38.3382 C   0  0  0  0  0  0  0  0  0  0  0  0
    5.1822   -9.7013   37.1779 N   0  0  0  0  0  0  0  0  0  0  0  0
    2.7873   -6.9231   36.5575 O   0  0  0  0  0  0  0  0  0  0  0  0
    4.7719   -3.1571   30.3458 H   0  0  0  0  0  0  0  0  0  0  0  0
    4.2131   -3.8039   28.6899 H   0  0  0  0  0  0  0  0  0  0  0  0
    5.1014   -4.7508   29.8242 H   0  0  0  0  0  0  0  0  0  0  0  0
    2.2577   -3.3687   28.9091 H   0  0  0  0  0  0  0  0  0  0  0  0
    3.0193   -2.3741   30.2174 H   0  0  0  0  0  0  0  0  0  0  0  0
    1.9417   -1.6538   32.0350 H   0  0  0  0  0  0  0  0  0  0  0  0
    0.0207   -1.6600   33.5429 H   0  0  0  0  0  0  0  0  0  0  0  0
   -1.7956   -3.2798   33.2118 H   0  0  0  0  0  0  0  0  0  0  0  0
   -1.7119   -4.8131   31.3173 H   0  0  0  0  0  0  0  0  0  0  0  0
   -0.0209   -4.5434   29.5007 H   0  0  0  0  0  0  0  0  0  0  0  0
    1.8308   -6.3599   29.8879 H   0  0  0  0  0  0  0  0  0  0  0  0
   -0.0972   -7.8109   29.7938 H   0  0  0  0  0  0  0  0  0  0  0  0
   -1.0571   -7.2117   35.0092 H   0  0  0  0  0  0  0  0  0  0  0  0
    3.7475   -7.7294   39.3554 H   0  0  0  0  0  0  0  0  0  0  0  0
    5.5044   -9.5015   40.4195 H   0  0  0  0  0  0  0  0  0  0  0  0
    6.4702  -10.9584   38.3321 H   0  0  0  0  0  0  0  0  0  0  0  0
    5.3547  -10.0743   36.2524 H   0  0  0  0  0  0  0  0  0  0  0  0
  1  2  1  0
  2  3  1  0
  3  4  1  0
  4  5  2  0
  5  6  1  0
  6  7  2  0
  7  8  1  0
  8  9  2  0
  2 10  1  0
 10 11  2  0
 10 12  1  0
 12 13  1  0
 13 14  2  0
 14 15  1  0
 15 16  2  0
 16 17  1  0
 17 18  2  0
 18 19  1  0
 19 20  1  0
 20 21  1  0
 21 22  1  0
 22 23  2  0
 23 24  1  0
 24 25  2  0
 25 26  1  0
 26 27  2  0
 27 28  1  0
 28 29  2  0
 29 30  1  0
 25 31  1  0
  9  4  1  0
 20 12  2  0
 31 22  1  0
 19 15  1  0
 30 26  1  0
  1 32  1  0
  1 33  1  0
  1 34  1  0
  3 35  1  0
  3 36  1  0
  5 37  1  0
  6 38  1  0
  7 39  1  0
  8 40  1  0
  9 41  1  0
 13 42  1  0
 14 43  1  0
 18 44  1  0
 27 45  1  0
 28 46  1  0
 29 47  1  0
 30 48  1  0
M  END
>  <Energy>  (626) 
136.44114475019484

>  <compound_id>  (626) 
3908

>  <target_id>  (626) 
1

>  <reference_id>  (626) 
201

>  <inspiration_ids>  (626) 
[148, 201]

>  <energy_score>  (626) 
50.58220332498555

>  <distance_score>  (626) 
2.229194847315603

>  <path>  (626) 
/opt/xchem-fragalysis-2/maxwin/BulkDock/SCRATCH/505735/C3908-P201/C3908-P201.minimised.mol

>  <scratch_subdir>  (626) 
/opt/xchem-fragalysis-2/maxwin/BulkDock/SCRATCH/505735/C3908-P201

>  <fragmenstein_runtime>  (626) 
3.469714641571045

>  <fragmenstein_outcome>  (626) 
too moved

>  <fragmenstein_mode>  (626) 
expansion

>  <fragmenstein_error>  (626) 


$$$$
C4230-P148
     RDKit          3D

 54 58  0  0  0  0  0  0  0  0999 V2000
    5.1063    0.6411   32.3409 C   0  0  0  0  0  0  0  0  0  0  0  0
    4.2474   -0.2972   33.0034 N   0  0  0  0  0  0  0  0  0  0  0  0
    4.1962   -1.8457   32.9240 C   0  0  0  0  0  0  0  0  0  0  0  0
    4.7930   -2.5882   32.2500 O   0  0  0  0  0  0  0  0  0  0  0  0
    3.1117   -2.2995   33.9259 C   0  0  0  0  0  0  0  0  0  0  0  0
    3.1807   -3.8183   34.1711 C   0  0  0  0  0  0  0  0  0  0  0  0
    2.3696   -4.5954   33.1346 C   0  0  0  0  0  0  0  0  0  0  0  0
    0.8501   -4.2629   33.1428 C   0  0  0  0  0  0  0  0  0  0  0  0
    0.3778   -4.1916   31.6536 C   0  0  0  0  0  0  0  0  0  0  0  0
    0.4735   -5.5403   30.9454 C   0  0  0  0  0  0  0  0  0  0  0  0
   -0.2468   -6.5750   31.7172 C   0  0  0  0  0  0  0  0  0  0  0  0
   -0.8516   -7.6417   31.2447 N   0  0  0  0  0  0  0  0  0  0  0  0
   -1.4882   -8.2487   32.2939 N   0  0  0  0  0  0  0  0  0  0  0  0
   -1.2665   -7.5460   33.3827 C   0  0  0  0  0  0  0  0  0  0  0  0
   -1.7437   -7.8017   34.6200 N   0  0  0  0  0  0  0  0  0  0  0  0
   -0.4373   -6.4957   33.0776 N   0  0  0  0  0  0  0  0  0  0  0  0
   -0.0721   -5.3296   33.8875 C   0  0  0  0  0  0  0  0  0  0  0  0
    0.3384   -5.6622   35.6437 S   0  0  0  0  0  0  0  0  0  0  0  0
    1.6374   -6.8015   35.6152 C   0  0  0  0  0  0  0  0  0  0  0  0
    2.0082   -7.5327   34.5866 N   0  0  0  0  0  0  0  0  0  0  0  0
    3.0853   -8.2854   35.0045 N   0  0  0  0  0  0  0  0  0  0  0  0
    3.2811   -7.9943   36.2791 C   0  0  0  0  0  0  0  0  0  0  0  0
    4.2448   -8.6358   37.1084 C   0  0  0  0  0  0  0  0  0  0  0  0
    4.3813   -8.6150   38.4824 C   0  0  0  0  0  0  0  0  0  0  0  0
    5.4459   -9.4861   38.8204 C   0  0  0  0  0  0  0  0  0  0  0  0
    5.9401  -10.0045   37.6447 C   0  0  0  0  0  0  0  0  0  0  0  0
    5.2132   -9.4747   36.6099 N   0  0  0  0  0  0  0  0  0  0  0  0
    2.3908   -7.0553   36.7267 O   0  0  0  0  0  0  0  0  0  0  0  0
    0.6247   -2.8564   33.7850 C   0  0  0  0  0  0  0  0  0  0  0  0
    1.7229   -1.8518   33.4364 C   0  0  0  0  0  0  0  0  0  0  0  0
    4.4979    1.4640   31.9602 H   0  0  0  0  0  0  0  0  0  0  0  0
    5.8293    1.0200   33.0666 H   0  0  0  0  0  0  0  0  0  0  0  0
    5.6298    0.1414   31.5230 H   0  0  0  0  0  0  0  0  0  0  0  0
    3.6531    0.0230   33.7587 H   0  0  0  0  0  0  0  0  0  0  0  0
    3.3391   -1.8144   34.8848 H   0  0  0  0  0  0  0  0  0  0  0  0
    2.8065   -4.0332   35.1774 H   0  0  0  0  0  0  0  0  0  0  0  0
    4.2201   -4.1678   34.1582 H   0  0  0  0  0  0  0  0  0  0  0  0
    2.7980   -4.3517   32.1534 H   0  0  0  0  0  0  0  0  0  0  0  0
    2.5410   -5.6651   33.2410 H   0  0  0  0  0  0  0  0  0  0  0  0
   -0.6654   -3.8465   31.6204 H   0  0  0  0  0  0  0  0  0  0  0  0
    0.9608   -3.4532   31.0901 H   0  0  0  0  0  0  0  0  0  0  0  0
    1.5170   -5.8401   30.8115 H   0  0  0  0  0  0  0  0  0  0  0  0
    0.0370   -5.4521   29.9448 H   0  0  0  0  0  0  0  0  0  0  0  0
   -1.9034   -8.8103   34.7504 H   0  0  0  0  0  0  0  0  0  0  0  0
   -1.2135   -7.4509   35.4121 H   0  0  0  0  0  0  0  0  0  0  0  0
   -1.0446   -4.8256   33.9780 H   0  0  0  0  0  0  0  0  0  0  0  0
    3.7605   -8.0595   39.1749 H   0  0  0  0  0  0  0  0  0  0  0  0
    5.8062   -9.7167   39.8153 H   0  0  0  0  0  0  0  0  0  0  0  0
    6.7420  -10.7065   37.4561 H   0  0  0  0  0  0  0  0  0  0  0  0
    5.3437   -9.6923   35.6292 H   0  0  0  0  0  0  0  0  0  0  0  0
    0.5783   -2.9283   34.8777 H   0  0  0  0  0  0  0  0  0  0  0  0
   -0.3468   -2.4517   33.4741 H   0  0  0  0  0  0  0  0  0  0  0  0
    1.4762   -0.8854   33.8936 H   0  0  0  0  0  0  0  0  0  0  0  0
    1.7284   -1.6754   32.3540 H   0  0  0  0  0  0  0  0  0  0  0  0
  1  2  1  0
  2  3  1  0
  3  4  2  0
  3  5  1  0
  5  6  1  0
  6  7  1  0
  7  8  1  0
  8  9  1  0
  9 10  1  0
 10 11  1  0
 11 12  2  0
 12 13  1  0
 13 14  2  0
 14 15  1  0
 14 16  1  0
 16 17  1  0
 17 18  1  0
 18 19  1  0
 19 20  2  0
 20 21  1  0
 21 22  2  0
 22 23  1  0
 23 24  2  0
 24 25  1  0
 25 26  2  0
 26 27  1  0
 22 28  1  0
  8 29  1  0
 29 30  1  0
 30  5  1  0
 17  8  1  0
 28 19  1  0
 16 11  1  0
 27 23  1  0
  1 31  1  0
  1 32  1  0
  1 33  1  0
  2 34  1  0
  5 35  1  0
  6 36  1  0
  6 37  1  0
  7 38  1  0
  7 39  1  0
  9 40  1  0
  9 41  1  0
 10 42  1  0
 10 43  1  0
 15 44  1  0
 15 45  1  0
 17 46  1  0
 24 47  1  0
 25 48  1  0
 26 49  1  0
 27 50  1  0
 29 51  1  0
 29 52  1  0
 30 53  1  0
 30 54  1  0
M  END
>  <Energy>  (627) 
2.5412076109351358

>  <compound_id>  (627) 
4230

>  <target_id>  (627) 
1

>  <reference_id>  (627) 
148

>  <inspiration_ids>  (627) 
[148, 202]

>  <energy_score>  (627) 
-77.52208821519751

>  <distance_score>  (627) 
0.5713714000544133

>  <path>  (627) 
/opt/xchem-fragalysis-2/maxwin/BulkDock/SCRATCH/505735/C4230-P148/C4230-P148.minimised.mol

>  <scratch_subdir>  (627) 
/opt/xchem-fragalysis-2/maxwin/BulkDock/SCRATCH/505735/C4230-P148

>  <fragmenstein_runtime>  (627) 
3.072218179702759

>  <fragmenstein_outcome>  (627) 
acceptable

>  <fragmenstein_mode>  (627) 
expansion

>  <fragmenstein_error>  (627) 


$$$$
C4230-P202
     RDKit          3D

 54 58  0  0  0  0  0  0  0  0999 V2000
    5.4661    0.4219   32.2285 C   0  0  0  0  0  0  0  0  0  0  0  0
    4.5741   -0.4806   32.8962 N   0  0  0  0  0  0  0  0  0  0  0  0
    4.4152   -2.0186   32.7681 C   0  0  0  0  0  0  0  0  0  0  0  0
    4.9323   -2.7743   32.0446 O   0  0  0  0  0  0  0  0  0  0  0  0
    3.3375   -2.4349   33.7931 C   0  0  0  0  0  0  0  0  0  0  0  0
    3.3475   -3.9580   34.0207 C   0  0  0  0  0  0  0  0  0  0  0  0
    2.4755   -4.6878   32.9996 C   0  0  0  0  0  0  0  0  0  0  0  0
    0.9726   -4.2900   33.0555 C   0  0  0  0  0  0  0  0  0  0  0  0
    0.4609   -4.1868   31.5814 C   0  0  0  0  0  0  0  0  0  0  0  0
    0.4985   -5.5275   30.8524 C   0  0  0  0  0  0  0  0  0  0  0  0
   -0.1986   -6.5653   31.6399 C   0  0  0  0  0  0  0  0  0  0  0  0
   -0.8006   -7.6380   31.1786 N   0  0  0  0  0  0  0  0  0  0  0  0
   -1.4021   -8.2560   32.2411 N   0  0  0  0  0  0  0  0  0  0  0  0
   -1.1661   -7.5507   33.3250 C   0  0  0  0  0  0  0  0  0  0  0  0
   -1.6266   -7.8089   34.5673 N   0  0  0  0  0  0  0  0  0  0  0  0
   -0.3543   -6.4933   33.0057 N   0  0  0  0  0  0  0  0  0  0  0  0
    0.0269   -5.3282   33.8098 C   0  0  0  0  0  0  0  0  0  0  0  0
    0.4218   -5.6486   35.5710 S   0  0  0  0  0  0  0  0  0  0  0  0
    1.7193   -6.7889   35.5645 C   0  0  0  0  0  0  0  0  0  0  0  0
    2.0975   -7.5352   34.5493 N   0  0  0  0  0  0  0  0  0  0  0  0
    3.1770   -8.2745   34.9830 N   0  0  0  0  0  0  0  0  0  0  0  0
    3.3620   -7.9663   36.2554 C   0  0  0  0  0  0  0  0  0  0  0  0
    4.3106   -8.6072   37.1031 C   0  0  0  0  0  0  0  0  0  0  0  0
    4.4291   -8.5756   38.4785 C   0  0  0  0  0  0  0  0  0  0  0  0
    5.4761   -9.4592   38.8386 C   0  0  0  0  0  0  0  0  0  0  0  0
    5.9780   -9.9959   37.6744 C   0  0  0  0  0  0  0  0  0  0  0  0
    5.2723   -9.4657   36.6254 N   0  0  0  0  0  0  0  0  0  0  0  0
    2.4670   -7.0241   36.6842 O   0  0  0  0  0  0  0  0  0  0  0  0
    0.8252   -2.8807   33.7128 C   0  0  0  0  0  0  0  0  0  0  0  0
    1.9577   -1.9224   33.3429 C   0  0  0  0  0  0  0  0  0  0  0  0
    4.8714    1.1541   31.6782 H   0  0  0  0  0  0  0  0  0  0  0  0
    6.0731    0.9304   32.9806 H   0  0  0  0  0  0  0  0  0  0  0  0
    6.1058   -0.1368   31.5420 H   0  0  0  0  0  0  0  0  0  0  0  0
    3.9114   -0.1271   33.5759 H   0  0  0  0  0  0  0  0  0  0  0  0
    3.6091   -1.9700   34.7505 H   0  0  0  0  0  0  0  0  0  0  0  0
    2.9920   -4.1672   35.0348 H   0  0  0  0  0  0  0  0  0  0  0  0
    4.3703   -4.3512   33.9750 H   0  0  0  0  0  0  0  0  0  0  0  0
    2.8858   -4.4494   32.0094 H   0  0  0  0  0  0  0  0  0  0  0  0
    2.6040   -5.7658   33.0862 H   0  0  0  0  0  0  0  0  0  0  0  0
   -0.5730   -3.8129   31.5825 H   0  0  0  0  0  0  0  0  0  0  0  0
    1.0474   -3.4572   31.0102 H   0  0  0  0  0  0  0  0  0  0  0  0
    1.5292   -5.8435   30.6619 H   0  0  0  0  0  0  0  0  0  0  0  0
    0.0148   -5.4162   29.8765 H   0  0  0  0  0  0  0  0  0  0  0  0
   -1.7894   -8.8189   34.6872 H   0  0  0  0  0  0  0  0  0  0  0  0
   -1.0898   -7.4638   35.3567 H   0  0  0  0  0  0  0  0  0  0  0  0
   -0.9359   -4.8038   33.8905 H   0  0  0  0  0  0  0  0  0  0  0  0
    3.8070   -8.0048   39.1575 H   0  0  0  0  0  0  0  0  0  0  0  0
    5.8206   -9.6839   39.8405 H   0  0  0  0  0  0  0  0  0  0  0  0
    6.7736  -10.7093   37.5027 H   0  0  0  0  0  0  0  0  0  0  0  0
    5.4133   -9.6934   35.6485 H   0  0  0  0  0  0  0  0  0  0  0  0
    0.8043   -2.9572   34.8057 H   0  0  0  0  0  0  0  0  0  0  0  0
   -0.1353   -2.4316   33.4297 H   0  0  0  0  0  0  0  0  0  0  0  0
    1.7650   -0.9502   33.8138 H   0  0  0  0  0  0  0  0  0  0  0  0
    1.9440   -1.7366   32.2622 H   0  0  0  0  0  0  0  0  0  0  0  0
  1  2  1  0
  2  3  1  0
  3  4  2  0
  3  5  1  0
  5  6  1  0
  6  7  1  0
  7  8  1  0
  8  9  1  0
  9 10  1  0
 10 11  1  0
 11 12  2  0
 12 13  1  0
 13 14  2  0
 14 15  1  0
 14 16  1  0
 16 17  1  0
 17 18  1  0
 18 19  1  0
 19 20  2  0
 20 21  1  0
 21 22  2  0
 22 23  1  0
 23 24  2  0
 24 25  1  0
 25 26  2  0
 26 27  1  0
 22 28  1  0
  8 29  1  0
 29 30  1  0
 30  5  1  0
 17  8  1  0
 28 19  1  0
 16 11  1  0
 27 23  1  0
  1 31  1  0
  1 32  1  0
  1 33  1  0
  2 34  1  0
  5 35  1  0
  6 36  1  0
  6 37  1  0
  7 38  1  0
  7 39  1  0
  9 40  1  0
  9 41  1  0
 10 42  1  0
 10 43  1  0
 15 44  1  0
 15 45  1  0
 17 46  1  0
 24 47  1  0
 25 48  1  0
 26 49  1  0
 27 50  1  0
 29 51  1  0
 29 52  1  0
 30 53  1  0
 30 54  1  0
M  END
>  <Energy>  (628) 
3.0316682319854671

>  <compound_id>  (628) 
4230

>  <target_id>  (628) 
1

>  <reference_id>  (628) 
202

>  <inspiration_ids>  (628) 
[148, 202]

>  <energy_score>  (628) 
-77.03162759414828

>  <distance_score>  (628) 
0.5864943516593153

>  <path>  (628) 
/opt/xchem-fragalysis-2/maxwin/BulkDock/SCRATCH/505735/C4230-P202/C4230-P202.minimised.mol

>  <scratch_subdir>  (628) 
/opt/xchem-fragalysis-2/maxwin/BulkDock/SCRATCH/505735/C4230-P202

>  <fragmenstein_runtime>  (628) 
3.2017321586608887

>  <fragmenstein_outcome>  (628) 
acceptable

>  <fragmenstein_mode>  (628) 
expansion

>  <fragmenstein_error>  (628) 


$$$$
C4258-P149
     RDKit          3D

 37 41  0  0  0  0  0  0  0  0999 V2000
    0.6216   -1.7980   33.5107 C   0  0  0  0  0  0  0  0  0  0  0  0
    0.5281   -2.7927   34.6683 C   0  0  0  0  0  0  0  0  0  0  0  0
    1.8202   -2.9561   35.4090 N   0  0  0  0  0  0  0  0  0  0  0  0
    2.2886   -4.0522   36.1755 C   0  0  0  0  0  0  0  0  0  0  0  0
    1.5718   -5.1102   36.6315 C   0  0  0  0  0  0  0  0  0  0  0  0
    0.2122   -5.2472   36.4396 O   0  0  0  0  0  0  0  0  0  0  0  0
    0.1599   -6.5953   36.6681 C   0  0  0  0  0  0  0  0  0  0  0  0
    1.1442   -7.1943   37.2450 N   0  0  0  0  0  0  0  0  0  0  0  0
    2.1543   -6.3131   37.0381 N   0  0  0  0  0  0  0  0  0  0  0  0
    3.1010   -6.7372   36.0860 C   0  0  0  0  0  0  0  0  0  0  0  0
    4.3145   -6.3038   35.9201 N   0  0  0  0  0  0  0  0  0  0  0  0
    4.5707   -5.1190   36.5656 C   0  0  0  0  0  0  0  0  0  0  0  0
    3.7191   -4.0642   36.5957 C   0  0  0  0  0  0  0  0  0  0  0  0
    2.5115   -7.5835   34.9546 C   0  0  0  0  0  0  0  0  0  0  0  0
    1.3732   -6.9217   34.0937 C   0  0  0  0  0  0  0  0  0  0  0  0
    1.7519   -6.0912   32.9348 C   0  0  0  0  0  0  0  0  0  0  0  0
    0.9860   -6.0221   31.8255 C   0  0  0  0  0  0  0  0  0  0  0  0
   -0.1942   -6.7999   31.7796 C   0  0  0  0  0  0  0  0  0  0  0  0
   -0.9491   -7.2444   30.8022 N   0  0  0  0  0  0  0  0  0  0  0  0
   -1.9518   -7.9896   31.3653 N   0  0  0  0  0  0  0  0  0  0  0  0
   -1.7959   -7.9696   32.6656 C   0  0  0  0  0  0  0  0  0  0  0  0
   -0.6714   -7.2710   32.9872 N   0  0  0  0  0  0  0  0  0  0  0  0
    0.0411   -7.2178   34.1845 C   0  0  0  0  0  0  0  0  0  0  0  0
   -0.8388   -7.5769   35.6550 S   0  0  0  0  0  0  0  0  0  0  0  0
   -0.3431   -1.7118   33.0021 H   0  0  0  0  0  0  0  0  0  0  0  0
    1.3717   -2.1237   32.7830 H   0  0  0  0  0  0  0  0  0  0  0  0
    0.9139   -0.8080   33.8750 H   0  0  0  0  0  0  0  0  0  0  0  0
    0.2176   -3.7618   34.2661 H   0  0  0  0  0  0  0  0  0  0  0  0
   -0.2344   -2.4610   35.3807 H   0  0  0  0  0  0  0  0  0  0  0  0
    2.5612   -2.3259   35.1094 H   0  0  0  0  0  0  0  0  0  0  0  0
    5.5858   -4.9974   36.9376 H   0  0  0  0  0  0  0  0  0  0  0  0
    4.0660   -3.1305   37.0331 H   0  0  0  0  0  0  0  0  0  0  0  0
    3.3524   -7.8720   34.3200 H   0  0  0  0  0  0  0  0  0  0  0  0
    2.1460   -8.5208   35.3803 H   0  0  0  0  0  0  0  0  0  0  0  0
    2.6649   -5.5037   33.0201 H   0  0  0  0  0  0  0  0  0  0  0  0
    1.2615   -5.4187   30.9675 H   0  0  0  0  0  0  0  0  0  0  0  0
   -2.4066   -8.4936   33.3847 H   0  0  0  0  0  0  0  0  0  0  0  0
  1  2  1  0
  2  3  1  0
  3  4  1  0
  4  5  2  0
  5  6  1  0
  6  7  1  0
  7  8  2  0
  8  9  1  0
  9 10  1  0
 10 11  2  0
 11 12  1  0
 12 13  2  0
 10 14  1  0
 14 15  1  0
 15 16  1  0
 16 17  2  0
 17 18  1  0
 18 19  2  0
 19 20  1  0
 20 21  2  0
 21 22  1  0
 22 23  1  0
 23 24  1  0
 13  4  1  0
 23 15  2  0
  9  5  1  0
 22 18  1  0
 24  7  1  0
  1 25  1  0
  1 26  1  0
  1 27  1  0
  2 28  1  0
  2 29  1  0
  3 30  1  0
 12 31  1  0
 13 32  1  0
 14 33  1  0
 14 34  1  0
 16 35  1  0
 17 36  1  0
 21 37  1  0
M  END
>  <Energy>  (629) 
169.87812146854148

>  <compound_id>  (629) 
4258

>  <target_id>  (629) 
1

>  <reference_id>  (629) 
149

>  <inspiration_ids>  (629) 
[149, 13]

>  <energy_score>  (629) 
-184.110078036366

>  <distance_score>  (629) 
2.848029741159919

>  <path>  (629) 
/opt/xchem-fragalysis-2/maxwin/BulkDock/SCRATCH/505735/C4258-P149/C4258-P149.minimised.mol

>  <scratch_subdir>  (629) 
/opt/xchem-fragalysis-2/maxwin/BulkDock/SCRATCH/505735/C4258-P149

>  <fragmenstein_runtime>  (629) 
1.7092454433441162

>  <fragmenstein_outcome>  (629) 
too moved

>  <fragmenstein_mode>  (629) 
expansion

>  <fragmenstein_error>  (629) 


$$$$
C4258-P13
     RDKit          3D

 37 41  0  0  0  0  0  0  0  0999 V2000
    1.0388   -1.8813   34.1093 C   0  0  0  0  0  0  0  0  0  0  0  0
    0.8050   -2.8696   35.2538 C   0  0  0  0  0  0  0  0  0  0  0  0
    2.0143   -3.0895   36.1455 N   0  0  0  0  0  0  0  0  0  0  0  0
    2.5082   -4.3161   36.6751 C   0  0  0  0  0  0  0  0  0  0  0  0
    1.8091   -5.4735   36.7849 C   0  0  0  0  0  0  0  0  0  0  0  0
    0.4528   -5.5249   36.6350 O   0  0  0  0  0  0  0  0  0  0  0  0
    0.4247   -6.8044   36.1946 C   0  0  0  0  0  0  0  0  0  0  0  0
    1.4306   -7.5971   36.3086 N   0  0  0  0  0  0  0  0  0  0  0  0
    2.4097   -6.7208   36.5647 N   0  0  0  0  0  0  0  0  0  0  0  0
    3.3400   -6.6104   35.5294 C   0  0  0  0  0  0  0  0  0  0  0  0
    4.5977   -6.2987   35.6931 N   0  0  0  0  0  0  0  0  0  0  0  0
    4.7959   -5.4289   36.7529 C   0  0  0  0  0  0  0  0  0  0  0  0
    3.9289   -4.4432   37.1094 C   0  0  0  0  0  0  0  0  0  0  0  0
    2.7394   -6.2055   34.1014 C   0  0  0  0  0  0  0  0  0  0  0  0
    1.4076   -6.4207   33.3473 C   0  0  0  0  0  0  0  0  0  0  0  0
    1.6392   -5.9114   31.9536 C   0  0  0  0  0  0  0  0  0  0  0  0
    0.8327   -6.1759   30.9173 C   0  0  0  0  0  0  0  0  0  0  0  0
   -0.2939   -6.9776   31.1458 C   0  0  0  0  0  0  0  0  0  0  0  0
   -1.1503   -7.5526   30.3390 N   0  0  0  0  0  0  0  0  0  0  0  0
   -2.0590   -8.2051   31.1145 N   0  0  0  0  0  0  0  0  0  0  0  0
   -1.7425   -8.0198   32.3629 C   0  0  0  0  0  0  0  0  0  0  0  0
   -0.6223   -7.2484   32.4574 N   0  0  0  0  0  0  0  0  0  0  0  0
    0.1399   -6.8961   33.5847 C   0  0  0  0  0  0  0  0  0  0  0  0
   -0.7518   -7.2272   35.0712 S   0  0  0  0  0  0  0  0  0  0  0  0
    0.1307   -1.7670   33.5103 H   0  0  0  0  0  0  0  0  0  0  0  0
    1.8458   -2.2331   33.4587 H   0  0  0  0  0  0  0  0  0  0  0  0
    1.3260   -0.9005   34.5009 H   0  0  0  0  0  0  0  0  0  0  0  0
   -0.0115   -2.5127   35.8898 H   0  0  0  0  0  0  0  0  0  0  0  0
    0.4982   -3.8218   34.8131 H   0  0  0  0  0  0  0  0  0  0  0  0
    2.7395   -2.3821   36.0390 H   0  0  0  0  0  0  0  0  0  0  0  0
    5.7927   -5.4475   37.1885 H   0  0  0  0  0  0  0  0  0  0  0  0
    4.2369   -3.7190   37.8603 H   0  0  0  0  0  0  0  0  0  0  0  0
    2.8671   -5.1097   34.0970 H   0  0  0  0  0  0  0  0  0  0  0  0
    3.5260   -6.5434   33.4310 H   0  0  0  0  0  0  0  0  0  0  0  0
    2.5038   -5.2710   31.7777 H   0  0  0  0  0  0  0  0  0  0  0  0
    1.0267   -5.7895   29.9236 H   0  0  0  0  0  0  0  0  0  0  0  0
   -2.2689   -8.4491   33.1984 H   0  0  0  0  0  0  0  0  0  0  0  0
  1  2  1  0
  2  3  1  0
  3  4  1  0
  4  5  2  0
  5  6  1  0
  6  7  1  0
  7  8  2  0
  8  9  1  0
  9 10  1  0
 10 11  2  0
 11 12  1  0
 12 13  2  0
 10 14  1  0
 14 15  1  0
 15 16  1  0
 16 17  2  0
 17 18  1  0
 18 19  2  0
 19 20  1  0
 20 21  2  0
 21 22  1  0
 22 23  1  0
 23 24  1  0
 13  4  1  0
 23 15  2  0
  9  5  1  0
 22 18  1  0
 24  7  1  0
  1 25  1  0
  1 26  1  0
  1 27  1  0
  2 28  1  0
  2 29  1  0
  3 30  1  0
 12 31  1  0
 13 32  1  0
 14 33  1  0
 14 34  1  0
 16 35  1  0
 17 36  1  0
 21 37  1  0
M  END
>  <Energy>  (630) 
202.79873771728518

>  <compound_id>  (630) 
4258

>  <target_id>  (630) 
1

>  <reference_id>  (630) 
13

>  <inspiration_ids>  (630) 
[149, 13]

>  <energy_score>  (630) 
-151.18946178762218

>  <distance_score>  (630) 
2.768560544940269

>  <path>  (630) 
/opt/xchem-fragalysis-2/maxwin/BulkDock/SCRATCH/505735/C4258-P13/C4258-P13.minimised.mol

>  <scratch_subdir>  (630) 
/opt/xchem-fragalysis-2/maxwin/BulkDock/SCRATCH/505735/C4258-P13

>  <fragmenstein_runtime>  (630) 
1.6630139350891113

>  <fragmenstein_outcome>  (630) 
too moved

>  <fragmenstein_mode>  (630) 
expansion

>  <fragmenstein_error>  (630) 


$$$$
C4075-P149
     RDKit          3D

 59 64  0  0  0  0  0  0  0  0999 V2000
   -1.4802   -4.1806   31.5401 O   0  0  0  0  0  0  0  0  0  0  0  0
   -0.4294   -4.7275   31.7433 C   0  0  0  0  0  0  0  0  0  0  0  0
   -0.4192   -5.7308   32.8251 C   0  0  0  0  0  0  0  0  0  0  0  0
   -1.2205   -6.9277   32.5888 C   0  0  0  0  0  0  0  0  0  0  0  0
   -1.5533   -7.7549   33.5848 C   0  0  0  0  0  0  0  0  0  0  0  0
   -1.1203   -7.4539   34.8908 C   0  0  0  0  0  0  0  0  0  0  0  0
   -1.3291   -8.0384   36.0393 N   0  0  0  0  0  0  0  0  0  0  0  0
   -0.6432   -7.3403   36.9995 N   0  0  0  0  0  0  0  0  0  0  0  0
   -0.0863   -6.3099   36.4253 C   0  0  0  0  0  0  0  0  0  0  0  0
   -0.3095   -6.3501   35.0770 N   0  0  0  0  0  0  0  0  0  0  0  0
    0.1104   -5.5039   34.0434 C   0  0  0  0  0  0  0  0  0  0  0  0
    1.3709   -4.3445   34.3771 S   0  0  0  0  0  0  0  0  0  0  0  0
    2.5327   -5.5977   34.7999 C   0  0  0  0  0  0  0  0  0  0  0  0
    2.6331   -6.7320   34.1326 N   0  0  0  0  0  0  0  0  0  0  0  0
    3.4047   -7.5756   34.8929 N   0  0  0  0  0  0  0  0  0  0  0  0
    3.7251   -6.9101   35.9883 C   0  0  0  0  0  0  0  0  0  0  0  0
    4.4784   -7.4780   37.0541 C   0  0  0  0  0  0  0  0  0  0  0  0
    4.8208   -6.9610   38.2868 C   0  0  0  0  0  0  0  0  0  0  0  0
    5.5608   -7.9544   38.9764 C   0  0  0  0  0  0  0  0  0  0  0  0
    5.6527   -9.0491   38.1465 C   0  0  0  0  0  0  0  0  0  0  0  0
    4.9916   -8.7512   36.9842 N   0  0  0  0  0  0  0  0  0  0  0  0
    3.2165   -5.6316   35.9844 O   0  0  0  0  0  0  0  0  0  0  0  0
    0.7955   -4.6433   31.0567 N   0  0  0  0  0  0  0  0  0  0  0  0
    1.2161   -3.7703   29.9309 C   0  0  0  0  0  0  0  0  0  0  0  0
    2.7101   -3.6429   29.8194 C   0  0  0  0  0  0  0  0  0  0  0  0
    3.2646   -4.9189   29.2500 C   0  0  0  0  0  0  0  0  0  0  0  0
    2.1443   -6.0222   29.0918 C   0  0  0  0  0  0  0  0  0  0  0  0
    2.5824   -7.6425   28.6382 C   0  0  0  0  0  0  0  0  0  0  0  0
    4.3289   -7.4259   28.5440 C   0  0  0  0  0  0  0  0  0  0  0  0
    5.5460   -8.5412   28.9919 C   0  0  0  0  0  0  0  0  0  0  0  0
    5.3268  -10.2860   29.4498 C   0  0  0  0  0  0  0  0  0  0  0  0
    6.7686  -10.6783   28.8709 C   0  0  0  0  0  0  0  0  0  0  0  0
    7.3272   -9.8393   27.8250 O   0  0  0  0  0  0  0  0  0  0  0  0
    3.3074  -11.1044   29.4787 C   0  0  0  0  0  0  0  0  0  0  0  0
    2.0277   -9.4608   29.1747 C   0  0  0  0  0  0  0  0  0  0  0  0
    0.8620   -5.7235   29.9565 C   0  0  0  0  0  0  0  0  0  0  0  0
   -1.5624   -7.1323   31.5816 H   0  0  0  0  0  0  0  0  0  0  0  0
   -2.1694   -8.6296   33.4229 H   0  0  0  0  0  0  0  0  0  0  0  0
    0.4686   -5.5370   36.9360 H   0  0  0  0  0  0  0  0  0  0  0  0
    4.5590   -5.9784   38.6594 H   0  0  0  0  0  0  0  0  0  0  0  0
    5.9755   -7.8795   39.9739 H   0  0  0  0  0  0  0  0  0  0  0  0
    6.1225  -10.0135   38.2873 H   0  0  0  0  0  0  0  0  0  0  0  0
    4.8831   -9.3710   36.1912 H   0  0  0  0  0  0  0  0  0  0  0  0
    0.6480   -3.8124   28.9838 H   0  0  0  0  0  0  0  0  0  0  0  0
    0.8866   -2.7821   30.2928 H   0  0  0  0  0  0  0  0  0  0  0  0
    3.1509   -3.4483   30.8050 H   0  0  0  0  0  0  0  0  0  0  0  0
    2.9753   -2.7924   29.1807 H   0  0  0  0  0  0  0  0  0  0  0  0
    4.1587   -5.1753   29.8172 H   0  0  0  0  0  0  0  0  0  0  0  0
    3.6583   -4.6738   28.2501 H   0  0  0  0  0  0  0  0  0  0  0  0
    1.9132   -5.6139   28.1201 H   0  0  0  0  0  0  0  0  0  0  0  0
    4.7383   -6.4734   28.2063 H   0  0  0  0  0  0  0  0  0  0  0  0
    6.5667   -8.1516   28.9168 H   0  0  0  0  0  0  0  0  0  0  0  0
    6.6452  -11.5522   28.2737 H   0  0  0  0  0  0  0  0  0  0  0  0
    7.4890  -10.5742   29.6731 H   0  0  0  0  0  0  0  0  0  0  0  0
    8.2119  -10.1975   27.6382 H   0  0  0  0  0  0  0  0  0  0  0  0
    2.9661  -12.0094   29.9845 H   0  0  0  0  0  0  0  0  0  0  0  0
    0.9148   -9.4825   29.2505 H   0  0  0  0  0  0  0  0  0  0  0  0
    0.7147   -6.6515   30.5246 H   0  0  0  0  0  0  0  0  0  0  0  0
   -0.0682   -5.6881   29.3681 H   0  0  0  0  0  0  0  0  0  0  0  0
  1  2  2  0
  2  3  1  0
  3  4  1  0
  4  5  2  0
  5  6  1  0
  6  7  2  0
  7  8  1  0
  8  9  2  0
  9 10  1  0
 10 11  1  0
 11 12  1  0
 12 13  1  0
 13 14  2  0
 14 15  1  0
 15 16  2  0
 16 17  1  0
 17 18  2  0
 18 19  1  0
 19 20  2  0
 20 21  1  0
 16 22  1  0
  2 23  1  0
 23 24  1  0
 24 25  1  0
 25 26  1  0
 26 27  1  0
 27 28  1  0
 28 29  2  0
 29 30  1  0
 30 31  2  0
 31 32  1  0
 32 33  1  0
 31 34  1  0
 34 35  2  0
 27 36  1  0
 11  3  2  0
 22 13  1  0
 36 23  1  0
 10  6  1  0
 21 17  1  0
 35 28  1  0
  4 37  1  0
  5 38  1  0
  9 39  1  0
 18 40  1  0
 19 41  1  0
 20 42  1  0
 21 43  1  0
 24 44  1  0
 24 45  1  0
 25 46  1  0
 25 47  1  0
 26 48  1  0
 26 49  1  0
 27 50  1  0
 29 51  1  0
 30 52  1  0
 32 53  1  0
 32 54  1  0
 33 55  1  0
 34 56  1  0
 35 57  1  0
 36 58  1  0
 36 59  1  0
M  END
>  <Energy>  (631) 
867.54657241298639

>  <compound_id>  (631) 
4075

>  <target_id>  (631) 
1

>  <reference_id>  (631) 
149

>  <inspiration_ids>  (631) 
[149, 40]

>  <energy_score>  (631) 
749.2279372696686

>  <distance_score>  (631) 
2.541765649224948

>  <path>  (631) 
/opt/xchem-fragalysis-2/maxwin/BulkDock/SCRATCH/505735/C4075-P149/C4075-P149.minimised.mol

>  <scratch_subdir>  (631) 
/opt/xchem-fragalysis-2/maxwin/BulkDock/SCRATCH/505735/C4075-P149

>  <fragmenstein_runtime>  (631) 
9.704516172409058

>  <fragmenstein_outcome>  (631) 
too moved

>  <fragmenstein_mode>  (631) 
expansion

>  <fragmenstein_error>  (631) 


$$$$
C4075-P40
     RDKit          3D

 59 64  0  0  0  0  0  0  0  0999 V2000
    1.0719   -2.6049   31.8416 O   0  0  0  0  0  0  0  0  0  0  0  0
    1.6341   -3.6628   31.8926 C   0  0  0  0  0  0  0  0  0  0  0  0
    0.8427   -4.9216   31.7323 C   0  0  0  0  0  0  0  0  0  0  0  0
    0.6748   -5.4177   30.3639 C   0  0  0  0  0  0  0  0  0  0  0  0
    0.0504   -6.5731   30.1086 C   0  0  0  0  0  0  0  0  0  0  0  0
   -0.6023   -7.2434   31.1574 C   0  0  0  0  0  0  0  0  0  0  0  0
   -1.4122   -8.2716   31.1355 N   0  0  0  0  0  0  0  0  0  0  0  0
   -1.8167   -8.4897   32.4174 N   0  0  0  0  0  0  0  0  0  0  0  0
   -1.2129   -7.6173   33.1965 C   0  0  0  0  0  0  0  0  0  0  0  0
   -0.4587   -6.7528   32.4493 N   0  0  0  0  0  0  0  0  0  0  0  0
    0.2965   -5.6038   32.7708 C   0  0  0  0  0  0  0  0  0  0  0  0
    0.4435   -5.0881   34.4359 S   0  0  0  0  0  0  0  0  0  0  0  0
    1.5079   -6.3410   35.0184 C   0  0  0  0  0  0  0  0  0  0  0  0
    1.7191   -7.4839   34.4028 N   0  0  0  0  0  0  0  0  0  0  0  0
    2.5888   -8.2074   35.1794 N   0  0  0  0  0  0  0  0  0  0  0  0
    2.8649   -7.4640   36.2332 C   0  0  0  0  0  0  0  0  0  0  0  0
    3.7604   -7.8648   37.2650 C   0  0  0  0  0  0  0  0  0  0  0  0
    4.4720   -9.0403   37.4089 C   0  0  0  0  0  0  0  0  0  0  0  0
    5.2289   -8.9436   38.6012 C   0  0  0  0  0  0  0  0  0  0  0  0
    4.9605   -7.7127   39.1539 C   0  0  0  0  0  0  0  0  0  0  0  0
    4.0653   -7.0676   38.3394 N   0  0  0  0  0  0  0  0  0  0  0  0
    2.2025   -6.2585   36.1983 O   0  0  0  0  0  0  0  0  0  0  0  0
    3.0189   -3.9721   32.0265 N   0  0  0  0  0  0  0  0  0  0  0  0
    4.2087   -3.0737   32.2620 C   0  0  0  0  0  0  0  0  0  0  0  0
    4.8206   -2.0493   31.2888 C   0  0  0  0  0  0  0  0  0  0  0  0
    5.7146   -2.8230   30.3287 C   0  0  0  0  0  0  0  0  0  0  0  0
    5.1766   -4.2515   30.3046 C   0  0  0  0  0  0  0  0  0  0  0  0
    5.4663   -4.9759   29.0035 C   0  0  0  0  0  0  0  0  0  0  0  0
    6.2015   -6.1715   29.0365 C   0  0  0  0  0  0  0  0  0  0  0  0
    6.5296   -6.8462   27.8595 C   0  0  0  0  0  0  0  0  0  0  0  0
    6.1356   -6.3382   26.6176 C   0  0  0  0  0  0  0  0  0  0  0  0
    6.6003   -7.0093   25.3486 C   0  0  0  0  0  0  0  0  0  0  0  0
    7.9562   -6.6469   25.0780 O   0  0  0  0  0  0  0  0  0  0  0  0
    5.3842   -5.1577   26.5780 C   0  0  0  0  0  0  0  0  0  0  0  0
    5.0431   -4.4883   27.7590 C   0  0  0  0  0  0  0  0  0  0  0  0
    3.6666   -4.1065   30.6297 C   0  0  0  0  0  0  0  0  0  0  0  0
    1.1089   -4.8425   29.5506 H   0  0  0  0  0  0  0  0  0  0  0  0
   -0.0006   -7.0004   29.1210 H   0  0  0  0  0  0  0  0  0  0  0  0
   -1.3057   -7.5723   34.2716 H   0  0  0  0  0  0  0  0  0  0  0  0
    4.4521   -9.8812   36.7259 H   0  0  0  0  0  0  0  0  0  0  0  0
    5.8970   -9.6915   39.0099 H   0  0  0  0  0  0  0  0  0  0  0  0
    5.3252   -7.2424   40.0579 H   0  0  0  0  0  0  0  0  0  0  0  0
    3.6862   -6.1438   38.5061 H   0  0  0  0  0  0  0  0  0  0  0  0
    3.8304   -2.4466   33.0847 H   0  0  0  0  0  0  0  0  0  0  0  0
    4.9825   -3.6769   32.7627 H   0  0  0  0  0  0  0  0  0  0  0  0
    5.4250   -1.3161   31.8350 H   0  0  0  0  0  0  0  0  0  0  0  0
    4.0400   -1.4906   30.7590 H   0  0  0  0  0  0  0  0  0  0  0  0
    5.7139   -2.3279   29.3518 H   0  0  0  0  0  0  0  0  0  0  0  0
    6.7543   -2.8263   30.6778 H   0  0  0  0  0  0  0  0  0  0  0  0
    5.6567   -4.8265   31.1080 H   0  0  0  0  0  0  0  0  0  0  0  0
    6.5529   -6.5863   29.9801 H   0  0  0  0  0  0  0  0  0  0  0  0
    7.1205   -7.7603   27.9143 H   0  0  0  0  0  0  0  0  0  0  0  0
    5.9835   -6.7117   24.4954 H   0  0  0  0  0  0  0  0  0  0  0  0
    6.5414   -8.0974   25.4499 H   0  0  0  0  0  0  0  0  0  0  0  0
    8.2324   -6.0202   25.7677 H   0  0  0  0  0  0  0  0  0  0  0  0
    5.0827   -4.7408   25.6192 H   0  0  0  0  0  0  0  0  0  0  0  0
    4.4746   -3.5635   27.6867 H   0  0  0  0  0  0  0  0  0  0  0  0
    3.2516   -5.0686   30.2995 H   0  0  0  0  0  0  0  0  0  0  0  0
    3.1727   -3.3958   29.9424 H   0  0  0  0  0  0  0  0  0  0  0  0
  1  2  2  0
  2  3  1  0
  3  4  1  0
  4  5  2  0
  5  6  1  0
  6  7  2  0
  7  8  1  0
  8  9  2  0
  9 10  1  0
 10 11  1  0
 11 12  1  0
 12 13  1  0
 13 14  2  0
 14 15  1  0
 15 16  2  0
 16 17  1  0
 17 18  2  0
 18 19  1  0
 19 20  2  0
 20 21  1  0
 16 22  1  0
  2 23  1  0
 23 24  1  0
 24 25  1  0
 25 26  1  0
 26 27  1  0
 27 28  1  0
 28 29  2  0
 29 30  1  0
 30 31  2  0
 31 32  1  0
 32 33  1  0
 31 34  1  0
 34 35  2  0
 27 36  1  0
 11  3  2  0
 22 13  1  0
 36 23  1  0
 10  6  1  0
 21 17  1  0
 35 28  1  0
  4 37  1  0
  5 38  1  0
  9 39  1  0
 18 40  1  0
 19 41  1  0
 20 42  1  0
 21 43  1  0
 24 44  1  0
 24 45  1  0
 25 46  1  0
 25 47  1  0
 26 48  1  0
 26 49  1  0
 27 50  1  0
 29 51  1  0
 30 52  1  0
 32 53  1  0
 32 54  1  0
 33 55  1  0
 34 56  1  0
 35 57  1  0
 36 58  1  0
 36 59  1  0
M  END
>  <Energy>  (632) 
147.73317648118351

>  <compound_id>  (632) 
4075

>  <target_id>  (632) 
1

>  <reference_id>  (632) 
40

>  <inspiration_ids>  (632) 
[149, 40]

>  <energy_score>  (632) 
29.414541337872492

>  <distance_score>  (632) 
2.586792501396181

>  <path>  (632) 
/opt/xchem-fragalysis-2/maxwin/BulkDock/SCRATCH/505735/C4075-P40/C4075-P40.minimised.mol

>  <scratch_subdir>  (632) 
/opt/xchem-fragalysis-2/maxwin/BulkDock/SCRATCH/505735/C4075-P40

>  <fragmenstein_runtime>  (632) 
9.791645765304565

>  <fragmenstein_outcome>  (632) 
too moved

>  <fragmenstein_mode>  (632) 
expansion

>  <fragmenstein_error>  (632) 


$$$$
C4259-P149
     RDKit          3D

 65 67  0  0  0  0  0  0  0  0999 V2000
    5.7481   -3.9936   33.4739 C   0  0  0  0  0  0  0  0  0  0  0  0
    4.9973   -3.8085   34.7840 C   0  0  0  0  0  0  0  0  0  0  0  0
    4.1986   -5.0618   35.1454 C   0  0  0  0  0  0  0  0  0  0  0  0
    3.4042   -4.9209   36.4548 C   0  0  0  0  0  0  0  0  0  0  0  0
    1.8666   -4.7641   36.2920 C   0  0  0  0  0  0  0  0  0  0  0  0
    1.1055   -5.1125   37.5934 C   0  0  0  0  0  0  0  0  0  0  0  0
    0.3986   -4.0364   38.4515 C   0  0  0  0  0  0  0  0  0  0  0  0
   -1.0080   -3.9184   37.9841 N   0  0  0  0  0  0  0  0  0  0  0  0
   -1.8625   -3.0804   38.8249 C   0  0  0  0  0  0  0  0  0  0  0  0
   -2.1931   -1.7609   38.1452 C   0  0  0  0  0  0  0  0  0  0  0  0
    1.2918   -2.7574   38.5360 C   0  0  0  0  0  0  0  0  0  0  0  0
    1.0553   -1.9855   39.7740 N   0  0  0  0  0  0  0  0  0  0  0  0
    2.0916   -0.9645   39.9147 N   0  0  0  0  0  0  0  0  0  0  0  0
    1.0539   -1.9003   37.4250 O   0  0  0  0  0  0  0  0  0  0  0  0
    1.8662   -2.1813   36.3059 C   0  0  0  0  0  0  0  0  0  0  0  0
    1.5106   -3.4708   35.5431 C   0  0  0  0  0  0  0  0  0  0  0  0
    0.0920   -3.4029   34.9304 C   0  0  0  0  0  0  0  0  0  0  0  0
   -0.4901   -4.6617   34.2552 C   0  0  0  0  0  0  0  0  0  0  0  0
    0.3989   -5.4866   33.3032 C   0  0  0  0  0  0  0  0  0  0  0  0
    1.2050   -4.6241   32.3069 C   0  0  0  0  0  0  0  0  0  0  0  0
    0.4730   -4.4032   30.9921 C   0  0  0  0  0  0  0  0  0  0  0  0
    0.2131   -5.7435   30.3253 C   0  0  0  0  0  0  0  0  0  0  0  0
   -0.4469   -6.6798   31.2628 C   0  0  0  0  0  0  0  0  0  0  0  0
   -1.1728   -7.7391   30.9839 N   0  0  0  0  0  0  0  0  0  0  0  0
   -1.5771   -8.2889   32.1760 N   0  0  0  0  0  0  0  0  0  0  0  0
   -1.0775   -7.5599   33.1513 C   0  0  0  0  0  0  0  0  0  0  0  0
   -0.3671   -6.5301   32.6198 N   0  0  0  0  0  0  0  0  0  0  0  0
    5.0543   -4.1853   32.6489 H   0  0  0  0  0  0  0  0  0  0  0  0
    6.3202   -3.0919   33.2342 H   0  0  0  0  0  0  0  0  0  0  0  0
    6.4477   -4.8332   33.5370 H   0  0  0  0  0  0  0  0  0  0  0  0
    5.7159   -3.5860   35.5814 H   0  0  0  0  0  0  0  0  0  0  0  0
    4.3401   -2.9390   34.6928 H   0  0  0  0  0  0  0  0  0  0  0  0
    4.9117   -5.8879   35.2676 H   0  0  0  0  0  0  0  0  0  0  0  0
    3.5422   -5.3513   34.3177 H   0  0  0  0  0  0  0  0  0  0  0  0
    3.8215   -4.1290   37.0849 H   0  0  0  0  0  0  0  0  0  0  0  0
    3.5782   -5.8520   37.0124 H   0  0  0  0  0  0  0  0  0  0  0  0
    1.6180   -5.6070   35.6497 H   0  0  0  0  0  0  0  0  0  0  0  0
    1.8011   -5.6335   38.2672 H   0  0  0  0  0  0  0  0  0  0  0  0
    0.3729   -5.8962   37.3467 H   0  0  0  0  0  0  0  0  0  0  0  0
    0.3503   -4.4715   39.4610 H   0  0  0  0  0  0  0  0  0  0  0  0
   -1.4101   -4.8569   37.9887 H   0  0  0  0  0  0  0  0  0  0  0  0
   -2.8122   -3.6012   38.9706 H   0  0  0  0  0  0  0  0  0  0  0  0
   -1.4658   -2.9339   39.8337 H   0  0  0  0  0  0  0  0  0  0  0  0
   -2.8986   -1.1918   38.7595 H   0  0  0  0  0  0  0  0  0  0  0  0
   -2.6640   -1.9291   37.1704 H   0  0  0  0  0  0  0  0  0  0  0  0
   -1.3104   -1.1369   37.9914 H   0  0  0  0  0  0  0  0  0  0  0  0
    2.3436   -3.0718   38.5666 H   0  0  0  0  0  0  0  0  0  0  0  0
    0.1375   -1.5529   39.6503 H   0  0  0  0  0  0  0  0  0  0  0  0
    2.0610   -0.3187   39.1180 H   0  0  0  0  0  0  0  0  0  0  0  0
    1.9301   -0.3964   40.7499 H   0  0  0  0  0  0  0  0  0  0  0  0
    1.7370   -1.3361   35.6186 H   0  0  0  0  0  0  0  0  0  0  0  0
    2.9220   -2.1526   36.5966 H   0  0  0  0  0  0  0  0  0  0  0  0
    2.1719   -3.4465   34.6729 H   0  0  0  0  0  0  0  0  0  0  0  0
    0.0956   -2.5973   34.1824 H   0  0  0  0  0  0  0  0  0  0  0  0
   -0.6306   -3.0606   35.6746 H   0  0  0  0  0  0  0  0  0  0  0  0
   -0.8703   -5.3247   35.0433 H   0  0  0  0  0  0  0  0  0  0  0  0
   -1.3726   -4.3352   33.6922 H   0  0  0  0  0  0  0  0  0  0  0  0
    1.1285   -6.0610   33.8764 H   0  0  0  0  0  0  0  0  0  0  0  0
    1.4849   -3.6524   32.7150 H   0  0  0  0  0  0  0  0  0  0  0  0
    2.1528   -5.1345   32.0947 H   0  0  0  0  0  0  0  0  0  0  0  0
   -0.4711   -3.8748   31.1750 H   0  0  0  0  0  0  0  0  0  0  0  0
    1.0737   -3.7717   30.3278 H   0  0  0  0  0  0  0  0  0  0  0  0
    1.1610   -6.1741   29.9911 H   0  0  0  0  0  0  0  0  0  0  0  0
   -0.4034   -5.5856   29.4400 H   0  0  0  0  0  0  0  0  0  0  0  0
   -1.2001   -7.7472   34.2100 H   0  0  0  0  0  0  0  0  0  0  0  0
  1  2  1  0
  2  3  1  0
  3  4  1  0
  4  5  1  0
  5  6  1  0
  6  7  1  0
  7  8  1  0
  8  9  1  0
  9 10  1  0
  7 11  1  0
 11 12  1  0
 12 13  1  0
 11 14  1  0
 14 15  1  0
 15 16  1  0
 16 17  1  0
 17 18  1  0
 18 19  1  0
 19 20  1  0
 20 21  1  0
 21 22  1  0
 22 23  1  0
 23 24  2  0
 24 25  1  0
 25 26  2  0
 26 27  1  0
 16  5  1  0
 27 19  1  0
 27 23  1  0
  1 28  1  0
  1 29  1  0
  1 30  1  0
  2 31  1  0
  2 32  1  0
  3 33  1  0
  3 34  1  0
  4 35  1  0
  4 36  1  0
  5 37  1  0
  6 38  1  0
  6 39  1  0
  7 40  1  0
  8 41  1  0
  9 42  1  0
  9 43  1  0
 10 44  1  0
 10 45  1  0
 10 46  1  0
 11 47  1  0
 12 48  1  0
 13 49  1  0
 13 50  1  0
 15 51  1  0
 15 52  1  0
 16 53  1  0
 17 54  1  0
 17 55  1  0
 18 56  1  0
 18 57  1  0
 19 58  1  0
 20 59  1  0
 20 60  1  0
 21 61  1  0
 21 62  1  0
 22 63  1  0
 22 64  1  0
 26 65  1  0
M  END
>  <Energy>  (633) 
126.01303146441116

>  <compound_id>  (633) 
4259

>  <target_id>  (633) 
1

>  <reference_id>  (633) 
149

>  <inspiration_ids>  (633) 
[149, 56]

>  <energy_score>  (633) 
-64.57588256886862

>  <distance_score>  (633) 
1.6359642389126303

>  <path>  (633) 
/opt/xchem-fragalysis-2/maxwin/BulkDock/SCRATCH/505735/C4259-P149/C4259-P149.minimised.mol

>  <scratch_subdir>  (633) 
/opt/xchem-fragalysis-2/maxwin/BulkDock/SCRATCH/505735/C4259-P149

>  <fragmenstein_runtime>  (633) 
3.076014757156372

>  <fragmenstein_outcome>  (633) 
too moved

>  <fragmenstein_mode>  (633) 
expansion

>  <fragmenstein_error>  (633) 


$$$$
C4259-P56
     RDKit          3D

 65 67  0  0  0  0  0  0  0  0999 V2000
    5.4425   -1.0893   36.6635 C   0  0  0  0  0  0  0  0  0  0  0  0
    4.6800   -2.4058   36.6615 C   0  0  0  0  0  0  0  0  0  0  0  0
    3.9174   -2.6050   35.3548 C   0  0  0  0  0  0  0  0  0  0  0  0
    3.0620   -3.8782   35.3047 C   0  0  0  0  0  0  0  0  0  0  0  0
    1.6068   -3.8216   35.8599 C   0  0  0  0  0  0  0  0  0  0  0  0
    1.4577   -3.9782   37.3792 C   0  0  0  0  0  0  0  0  0  0  0  0
    0.6319   -3.0426   38.2697 C   0  0  0  0  0  0  0  0  0  0  0  0
   -0.8353   -3.1377   38.0382 N   0  0  0  0  0  0  0  0  0  0  0  0
   -1.5948   -2.9999   39.2918 C   0  0  0  0  0  0  0  0  0  0  0  0
   -2.8448   -2.1662   39.0629 C   0  0  0  0  0  0  0  0  0  0  0  0
    1.2393   -1.6021   38.2034 C   0  0  0  0  0  0  0  0  0  0  0  0
    0.4341   -0.5912   38.9252 N   0  0  0  0  0  0  0  0  0  0  0  0
    1.1090    0.6987   38.8832 N   0  0  0  0  0  0  0  0  0  0  0  0
    1.5210   -1.1513   36.8714 O   0  0  0  0  0  0  0  0  0  0  0  0
    0.5105   -1.4544   35.9275 C   0  0  0  0  0  0  0  0  0  0  0  0
    0.7781   -2.7493   35.1420 C   0  0  0  0  0  0  0  0  0  0  0  0
   -0.5381   -3.3491   34.5775 C   0  0  0  0  0  0  0  0  0  0  0  0
   -0.4177   -3.8877   33.1363 C   0  0  0  0  0  0  0  0  0  0  0  0
    0.3261   -5.2363   32.9387 C   0  0  0  0  0  0  0  0  0  0  0  0
    1.4183   -5.0640   31.8666 C   0  0  0  0  0  0  0  0  0  0  0  0
    0.7995   -4.8868   30.4808 C   0  0  0  0  0  0  0  0  0  0  0  0
   -0.0856   -6.0669   30.0860 C   0  0  0  0  0  0  0  0  0  0  0  0
   -0.7906   -6.6896   31.2330 C   0  0  0  0  0  0  0  0  0  0  0  0
   -1.6339   -7.7016   31.2192 N   0  0  0  0  0  0  0  0  0  0  0  0
   -1.9186   -8.0264   32.5292 N   0  0  0  0  0  0  0  0  0  0  0  0
   -1.2470   -7.1997   33.3027 C   0  0  0  0  0  0  0  0  0  0  0  0
   -0.5694   -6.3131   32.5299 N   0  0  0  0  0  0  0  0  0  0  0  0
    4.7581   -0.2404   36.5662 H   0  0  0  0  0  0  0  0  0  0  0  0
    5.9954   -0.9735   37.6010 H   0  0  0  0  0  0  0  0  0  0  0  0
    6.1605   -1.0496   35.8382 H   0  0  0  0  0  0  0  0  0  0  0  0
    5.3938   -3.2253   36.7974 H   0  0  0  0  0  0  0  0  0  0  0  0
    4.0030   -2.4176   37.5167 H   0  0  0  0  0  0  0  0  0  0  0  0
    4.6624   -2.6788   34.5507 H   0  0  0  0  0  0  0  0  0  0  0  0
    3.3233   -1.7180   35.1187 H   0  0  0  0  0  0  0  0  0  0  0  0
    3.6033   -4.7150   35.7531 H   0  0  0  0  0  0  0  0  0  0  0  0
    2.9810   -4.1478   34.2437 H   0  0  0  0  0  0  0  0  0  0  0  0
    1.2211   -4.7874   35.5244 H   0  0  0  0  0  0  0  0  0  0  0  0
    2.4557   -3.9743   37.8132 H   0  0  0  0  0  0  0  0  0  0  0  0
    1.0513   -4.9800   37.5580 H   0  0  0  0  0  0  0  0  0  0  0  0
    0.8112   -3.4078   39.2925 H   0  0  0  0  0  0  0  0  0  0  0  0
   -1.0512   -4.0538   37.6442 H   0  0  0  0  0  0  0  0  0  0  0  0
   -1.8660   -3.9968   39.6566 H   0  0  0  0  0  0  0  0  0  0  0  0
   -1.0157   -2.5251   40.0917 H   0  0  0  0  0  0  0  0  0  0  0  0
   -3.4525   -2.1421   39.9732 H   0  0  0  0  0  0  0  0  0  0  0  0
   -3.4607   -2.5694   38.2589 H   0  0  0  0  0  0  0  0  0  0  0  0
   -2.5942   -1.1335   38.8014 H   0  0  0  0  0  0  0  0  0  0  0  0
    2.2104   -1.6480   38.7124 H   0  0  0  0  0  0  0  0  0  0  0  0
   -0.4710   -0.5795   38.4482 H   0  0  0  0  0  0  0  0  0  0  0  0
    1.4317    0.8976   37.9287 H   0  0  0  0  0  0  0  0  0  0  0  0
    0.4800    1.4586   39.1473 H   0  0  0  0  0  0  0  0  0  0  0  0
   -0.4928   -1.3994   36.3593 H   0  0  0  0  0  0  0  0  0  0  0  0
    0.5238   -0.6309   35.2014 H   0  0  0  0  0  0  0  0  0  0  0  0
    1.3502   -2.4254   34.2618 H   0  0  0  0  0  0  0  0  0  0  0  0
   -0.9258   -4.1284   35.2421 H   0  0  0  0  0  0  0  0  0  0  0  0
   -1.2989   -2.5583   34.5469 H   0  0  0  0  0  0  0  0  0  0  0  0
   -1.4250   -3.9658   32.7129 H   0  0  0  0  0  0  0  0  0  0  0  0
    0.0636   -3.0945   32.5497 H   0  0  0  0  0  0  0  0  0  0  0  0
    0.7997   -5.5932   33.8499 H   0  0  0  0  0  0  0  0  0  0  0  0
    2.0561   -4.2038   32.0990 H   0  0  0  0  0  0  0  0  0  0  0  0
    2.0736   -5.9401   31.8477 H   0  0  0  0  0  0  0  0  0  0  0  0
    0.1994   -3.9693   30.4545 H   0  0  0  0  0  0  0  0  0  0  0  0
    1.5899   -4.7462   29.7360 H   0  0  0  0  0  0  0  0  0  0  0  0
    0.5082   -6.8336   29.6042 H   0  0  0  0  0  0  0  0  0  0  0  0
   -0.7764   -5.7475   29.3048 H   0  0  0  0  0  0  0  0  0  0  0  0
   -1.2248   -7.2027   34.3824 H   0  0  0  0  0  0  0  0  0  0  0  0
  1  2  1  0
  2  3  1  0
  3  4  1  0
  4  5  1  0
  5  6  1  0
  6  7  1  0
  7  8  1  0
  8  9  1  0
  9 10  1  0
  7 11  1  0
 11 12  1  0
 12 13  1  0
 11 14  1  0
 14 15  1  0
 15 16  1  0
 16 17  1  0
 17 18  1  0
 18 19  1  0
 19 20  1  0
 20 21  1  0
 21 22  1  0
 22 23  1  0
 23 24  2  0
 24 25  1  0
 25 26  2  0
 26 27  1  0
 16  5  1  0
 27 19  1  0
 27 23  1  0
  1 28  1  0
  1 29  1  0
  1 30  1  0
  2 31  1  0
  2 32  1  0
  3 33  1  0
  3 34  1  0
  4 35  1  0
  4 36  1  0
  5 37  1  0
  6 38  1  0
  6 39  1  0
  7 40  1  0
  8 41  1  0
  9 42  1  0
  9 43  1  0
 10 44  1  0
 10 45  1  0
 10 46  1  0
 11 47  1  0
 12 48  1  0
 13 49  1  0
 13 50  1  0
 15 51  1  0
 15 52  1  0
 16 53  1  0
 17 54  1  0
 17 55  1  0
 18 56  1  0
 18 57  1  0
 19 58  1  0
 20 59  1  0
 20 60  1  0
 21 61  1  0
 21 62  1  0
 22 63  1  0
 22 64  1  0
 26 65  1  0
M  END
>  <Energy>  (634) 
132.03701960258573

>  <compound_id>  (634) 
4259

>  <target_id>  (634) 
1

>  <reference_id>  (634) 
56

>  <inspiration_ids>  (634) 
[149, 56]

>  <energy_score>  (634) 
-58.55189443069381

>  <distance_score>  (634) 
1.9303153012723744

>  <path>  (634) 
/opt/xchem-fragalysis-2/maxwin/BulkDock/SCRATCH/505735/C4259-P56/C4259-P56.minimised.mol

>  <scratch_subdir>  (634) 
/opt/xchem-fragalysis-2/maxwin/BulkDock/SCRATCH/505735/C4259-P56

>  <fragmenstein_runtime>  (634) 
3.1095430850982666

>  <fragmenstein_outcome>  (634) 
too moved

>  <fragmenstein_mode>  (634) 
expansion

>  <fragmenstein_error>  (634) 


$$$$
C4232-P59
     RDKit          2D

  0  0  0  0  0  0  0  0  0  0999 V2000
M  END
>  <compound_id>  (635) 
4232

>  <target_id>  (635) 
1

>  <reference_id>  (635) 
59

>  <inspiration_ids>  (635) 
[149, 59]

>  <energy_score>  (635) 
nan

>  <distance_score>  (635) 
nan

>  <path>  (635) 
/opt/xchem-fragalysis-2/maxwin/BulkDock/SCRATCH/505735/C4232-P59/C4232-P59.minimised.mol

>  <scratch_subdir>  (635) 
/opt/xchem-fragalysis-2/maxwin/BulkDock/SCRATCH/505735/C4232-P59

>  <fragmenstein_runtime>  (635) 
0.5689070224761963

>  <fragmenstein_outcome>  (635) 
too distant

>  <fragmenstein_mode>  (635) 
expansion

>  <fragmenstein_error>  (635) 
DistanceError: hit1

$$$$
C4236-P149
     RDKit          3D

 45 49  0  0  0  0  0  0  0  0999 V2000
   -1.7202   -7.9443   34.4427 N   0  0  0  0  0  0  0  0  0  0  0  0
   -1.4166   -7.6479   33.1646 C   0  0  0  0  0  0  0  0  0  0  0  0
   -1.7982   -8.3029   32.0880 N   0  0  0  0  0  0  0  0  0  0  0  0
   -1.2512   -7.7020   30.9821 N   0  0  0  0  0  0  0  0  0  0  0  0
   -0.5440   -6.6851   31.4072 C   0  0  0  0  0  0  0  0  0  0  0  0
   -0.6182   -6.6071   32.7797 N   0  0  0  0  0  0  0  0  0  0  0  0
    0.3683   -5.7962   33.4897 C   0  0  0  0  0  0  0  0  0  0  0  0
    0.3062   -5.8344   35.3145 S   0  0  0  0  0  0  0  0  0  0  0  0
    1.6233   -6.9272   35.5872 C   0  0  0  0  0  0  0  0  0  0  0  0
    2.1315   -7.7098   34.6553 N   0  0  0  0  0  0  0  0  0  0  0  0
    3.2130   -8.3302   35.2064 N   0  0  0  0  0  0  0  0  0  0  0  0
    3.2717   -7.9265   36.4630 C   0  0  0  0  0  0  0  0  0  0  0  0
    4.2429   -8.3896   37.3849 C   0  0  0  0  0  0  0  0  0  0  0  0
    4.3861   -8.1271   38.7303 C   0  0  0  0  0  0  0  0  0  0  0  0
    5.5085   -8.8603   39.1844 C   0  0  0  0  0  0  0  0  0  0  0  0
    6.0188   -9.5459   38.1043 C   0  0  0  0  0  0  0  0  0  0  0  0
    5.2434   -9.2532   37.0146 N   0  0  0  0  0  0  0  0  0  0  0  0
    2.2887   -7.0235   36.7691 O   0  0  0  0  0  0  0  0  0  0  0  0
    0.6995   -4.3920   32.8213 C   0  0  0  0  0  0  0  0  0  0  0  0
    0.1953   -4.3544   31.3383 C   0  0  0  0  0  0  0  0  0  0  0  0
    0.2570   -5.7068   30.6354 C   0  0  0  0  0  0  0  0  0  0  0  0
    0.0535   -3.1634   33.5668 C   0  0  0  0  0  0  0  0  0  0  0  0
    0.7577   -1.9025   33.2614 N   0  0  0  0  0  0  0  0  0  0  0  0
    2.1292   -1.9739   33.8022 C   0  0  0  0  0  0  0  0  0  0  0  0
    2.7613   -3.3814   33.7569 C   0  0  0  0  0  0  0  0  0  0  0  0
    2.1964   -4.2186   32.6921 N   0  0  0  0  0  0  0  0  0  0  0  0
   -1.1296   -7.6101   35.1961 H   0  0  0  0  0  0  0  0  0  0  0  0
   -1.8905   -8.9515   34.5978 H   0  0  0  0  0  0  0  0  0  0  0  0
    1.2549   -6.3750   33.2187 H   0  0  0  0  0  0  0  0  0  0  0  0
    3.7478   -7.4865   39.3268 H   0  0  0  0  0  0  0  0  0  0  0  0
    5.9011   -8.8884   40.1934 H   0  0  0  0  0  0  0  0  0  0  0  0
    6.8636  -10.2166   38.0208 H   0  0  0  0  0  0  0  0  0  0  0  0
    5.3755   -9.6195   36.0794 H   0  0  0  0  0  0  0  0  0  0  0  0
    0.7522   -3.6135   30.7490 H   0  0  0  0  0  0  0  0  0  0  0  0
   -0.8501   -4.0146   31.3182 H   0  0  0  0  0  0  0  0  0  0  0  0
   -0.1503   -5.6043   29.6273 H   0  0  0  0  0  0  0  0  0  0  0  0
    1.2908   -6.0465   30.5425 H   0  0  0  0  0  0  0  0  0  0  0  0
   -1.0003   -3.0568   33.2846 H   0  0  0  0  0  0  0  0  0  0  0  0
    0.0585   -3.2721   34.6546 H   0  0  0  0  0  0  0  0  0  0  0  0
    0.8388   -1.8261   32.2458 H   0  0  0  0  0  0  0  0  0  0  0  0
    2.7498   -1.2757   33.2282 H   0  0  0  0  0  0  0  0  0  0  0  0
    2.1264   -1.6131   34.8372 H   0  0  0  0  0  0  0  0  0  0  0  0
    2.6331   -3.8787   34.7245 H   0  0  0  0  0  0  0  0  0  0  0  0
    3.8406   -3.2817   33.5968 H   0  0  0  0  0  0  0  0  0  0  0  0
    2.6969   -5.1035   32.6516 H   0  0  0  0  0  0  0  0  0  0  0  0
  1  2  1  0
  2  3  2  0
  3  4  1  0
  4  5  2  0
  5  6  1  0
  6  7  1  0
  7  8  1  0
  8  9  1  0
  9 10  2  0
 10 11  1  0
 11 12  2  0
 12 13  1  0
 13 14  2  0
 14 15  1  0
 15 16  2  0
 16 17  1  0
 12 18  1  0
  7 19  1  0
 19 20  1  0
 20 21  1  0
 19 22  1  0
 22 23  1  0
 23 24  1  0
 24 25  1  0
 25 26  1  0
  6  2  1  0
 18  9  1  0
 26 19  1  0
 21  5  1  0
 17 13  1  0
  1 27  1  0
  1 28  1  0
  7 29  1  0
 14 30  1  0
 15 31  1  0
 16 32  1  0
 17 33  1  0
 20 34  1  0
 20 35  1  0
 21 36  1  0
 21 37  1  0
 22 38  1  0
 22 39  1  0
 23 40  1  0
 24 41  1  0
 24 42  1  0
 25 43  1  0
 25 44  1  0
 26 45  1  0
M  END
>  <Energy>  (636) 
87.099832738852342

>  <compound_id>  (636) 
4236

>  <target_id>  (636) 
1

>  <reference_id>  (636) 
149

>  <inspiration_ids>  (636) 
[149, 129]

>  <energy_score>  (636) 
-60.75965255135989

>  <distance_score>  (636) 
1.1198192550601846

>  <path>  (636) 
/opt/xchem-fragalysis-2/maxwin/BulkDock/SCRATCH/505735/C4236-P149/C4236-P149.minimised.mol

>  <scratch_subdir>  (636) 
/opt/xchem-fragalysis-2/maxwin/BulkDock/SCRATCH/505735/C4236-P149

>  <fragmenstein_runtime>  (636) 
1.3702666759490967

>  <fragmenstein_outcome>  (636) 
too moved

>  <fragmenstein_mode>  (636) 
expansion

>  <fragmenstein_error>  (636) 


$$$$
C4236-P129
     RDKit          3D

 45 49  0  0  0  0  0  0  0  0999 V2000
   -1.6404   -7.8945   34.3992 N   0  0  0  0  0  0  0  0  0  0  0  0
   -1.3639   -7.5790   33.1207 C   0  0  0  0  0  0  0  0  0  0  0  0
   -1.7850   -8.1894   32.0352 N   0  0  0  0  0  0  0  0  0  0  0  0
   -1.3182   -7.5108   30.9384 N   0  0  0  0  0  0  0  0  0  0  0  0
   -0.6164   -6.4913   31.3769 C   0  0  0  0  0  0  0  0  0  0  0  0
   -0.5682   -6.5269   32.7507 N   0  0  0  0  0  0  0  0  0  0  0  0
    0.5708   -5.9459   33.4509 C   0  0  0  0  0  0  0  0  0  0  0  0
    0.4389   -5.8562   35.2768 S   0  0  0  0  0  0  0  0  0  0  0  0
    1.7416   -6.9389   35.6461 C   0  0  0  0  0  0  0  0  0  0  0  0
    2.2854   -7.7470   34.7577 N   0  0  0  0  0  0  0  0  0  0  0  0
    3.3391   -8.3568   35.3593 N   0  0  0  0  0  0  0  0  0  0  0  0
    3.3563   -7.9157   36.6036 C   0  0  0  0  0  0  0  0  0  0  0  0
    4.2989   -8.3633   37.5595 C   0  0  0  0  0  0  0  0  0  0  0  0
    4.4188   -8.0679   38.8992 C   0  0  0  0  0  0  0  0  0  0  0  0
    5.5219   -8.8052   39.3927 C   0  0  0  0  0  0  0  0  0  0  0  0
    6.0433   -9.5260   38.3410 C   0  0  0  0  0  0  0  0  0  0  0  0
    5.2933   -9.2506   37.2305 N   0  0  0  0  0  0  0  0  0  0  0  0
    2.3661   -7.0016   36.8529 O   0  0  0  0  0  0  0  0  0  0  0  0
    1.1644   -4.6491   32.7903 C   0  0  0  0  0  0  0  0  0  0  0  0
    1.3403   -4.9465   31.2694 C   0  0  0  0  0  0  0  0  0  0  0  0
    0.0710   -5.4417   30.5876 C   0  0  0  0  0  0  0  0  0  0  0  0
    0.2388   -3.4038   33.0150 C   0  0  0  0  0  0  0  0  0  0  0  0
    0.9249   -2.1345   32.7217 N   0  0  0  0  0  0  0  0  0  0  0  0
    2.0763   -1.9608   33.6263 C   0  0  0  0  0  0  0  0  0  0  0  0
    2.7075   -3.2660   34.1540 C   0  0  0  0  0  0  0  0  0  0  0  0
    2.5828   -4.3903   33.2232 N   0  0  0  0  0  0  0  0  0  0  0  0
   -1.0647   -7.5488   35.1579 H   0  0  0  0  0  0  0  0  0  0  0  0
   -1.8200   -8.8985   34.5596 H   0  0  0  0  0  0  0  0  0  0  0  0
    1.3208   -6.7005   33.1995 H   0  0  0  0  0  0  0  0  0  0  0  0
    3.7784   -7.4038   39.4669 H   0  0  0  0  0  0  0  0  0  0  0  0
    5.8943   -8.8136   40.4098 H   0  0  0  0  0  0  0  0  0  0  0  0
    6.8786  -10.2119   38.2930 H   0  0  0  0  0  0  0  0  0  0  0  0
    5.4362   -9.6443   36.3083 H   0  0  0  0  0  0  0  0  0  0  0  0
    2.1064   -5.7233   31.1406 H   0  0  0  0  0  0  0  0  0  0  0  0
    1.7164   -4.0679   30.7304 H   0  0  0  0  0  0  0  0  0  0  0  0
   -0.6116   -4.6020   30.4218 H   0  0  0  0  0  0  0  0  0  0  0  0
    0.3345   -5.8358   29.6045 H   0  0  0  0  0  0  0  0  0  0  0  0
   -0.6557   -3.4644   32.3869 H   0  0  0  0  0  0  0  0  0  0  0  0
   -0.1286   -3.3546   34.0462 H   0  0  0  0  0  0  0  0  0  0  0  0
    1.2871   -2.1718   31.7686 H   0  0  0  0  0  0  0  0  0  0  0  0
    2.8372   -1.3823   33.0887 H   0  0  0  0  0  0  0  0  0  0  0  0
    1.7648   -1.3467   34.4792 H   0  0  0  0  0  0  0  0  0  0  0  0
    2.2497   -3.5259   35.1143 H   0  0  0  0  0  0  0  0  0  0  0  0
    3.7698   -3.0900   34.3569 H   0  0  0  0  0  0  0  0  0  0  0  0
    3.0162   -5.2211   33.6236 H   0  0  0  0  0  0  0  0  0  0  0  0
  1  2  1  0
  2  3  2  0
  3  4  1  0
  4  5  2  0
  5  6  1  0
  6  7  1  0
  7  8  1  0
  8  9  1  0
  9 10  2  0
 10 11  1  0
 11 12  2  0
 12 13  1  0
 13 14  2  0
 14 15  1  0
 15 16  2  0
 16 17  1  0
 12 18  1  0
  7 19  1  0
 19 20  1  0
 20 21  1  0
 19 22  1  0
 22 23  1  0
 23 24  1  0
 24 25  1  0
 25 26  1  0
  6  2  1  0
 18  9  1  0
 26 19  1  0
 21  5  1  0
 17 13  1  0
  1 27  1  0
  1 28  1  0
  7 29  1  0
 14 30  1  0
 15 31  1  0
 16 32  1  0
 17 33  1  0
 20 34  1  0
 20 35  1  0
 21 36  1  0
 21 37  1  0
 22 38  1  0
 22 39  1  0
 23 40  1  0
 24 41  1  0
 24 42  1  0
 25 43  1  0
 25 44  1  0
 26 45  1  0
M  END
>  <Energy>  (637) 
81.074849037591392

>  <compound_id>  (637) 
4236

>  <target_id>  (637) 
1

>  <reference_id>  (637) 
129

>  <inspiration_ids>  (637) 
[149, 129]

>  <energy_score>  (637) 
-66.78463625261953

>  <distance_score>  (637) 
1.0231543048395957

>  <path>  (637) 
/opt/xchem-fragalysis-2/maxwin/BulkDock/SCRATCH/505735/C4236-P129/C4236-P129.minimised.mol

>  <scratch_subdir>  (637) 
/opt/xchem-fragalysis-2/maxwin/BulkDock/SCRATCH/505735/C4236-P129

>  <fragmenstein_runtime>  (637) 
1.108931303024292

>  <fragmenstein_outcome>  (637) 
too moved

>  <fragmenstein_mode>  (637) 
expansion

>  <fragmenstein_error>  (637) 


$$$$
C4236-P149
     RDKit          2D

  0  0  0  0  0  0  0  0  0  0999 V2000
M  END
>  <compound_id>  (638) 
4236

>  <target_id>  (638) 
1

>  <reference_id>  (638) 
149

>  <inspiration_ids>  (638) 
[149, 130]

>  <energy_score>  (638) 
nan

>  <distance_score>  (638) 
nan

>  <path>  (638) 
/opt/xchem-fragalysis-2/maxwin/BulkDock/SCRATCH/505735/C4236-P149/C4236-P149.minimised.mol

>  <scratch_subdir>  (638) 
/opt/xchem-fragalysis-2/maxwin/BulkDock/SCRATCH/505735/C4236-P149

>  <fragmenstein_runtime>  (638) 
0.18047451972961426

>  <fragmenstein_outcome>  (638) 
too distant

>  <fragmenstein_mode>  (638) 
expansion

>  <fragmenstein_error>  (638) 
DistanceError: hit0+hit1

$$$$
C4264-P149
     RDKit          3D

 50 55  0  0  0  0  0  0  0  0999 V2000
    0.0273   -2.5530   35.7418 C   0  0  0  0  0  0  0  0  0  0  0  0
    0.0520   -2.1881   34.4521 C   0  0  0  0  0  0  0  0  0  0  0  0
    1.2401   -2.1943   33.5299 C   0  0  0  0  0  0  0  0  0  0  0  0
    2.2585   -3.1861   33.8451 N   0  0  0  0  0  0  0  0  0  0  0  0
    3.5827   -2.9618   34.1434 C   0  0  0  0  0  0  0  0  0  0  0  0
    4.3548   -1.8197   33.7106 C   0  0  0  0  0  0  0  0  0  0  0  0
    5.3651   -1.2697   34.4928 C   0  0  0  0  0  0  0  0  0  0  0  0
    6.1249   -0.2226   33.9801 C   0  0  0  0  0  0  0  0  0  0  0  0
    5.8390    0.2381   32.7031 C   0  0  0  0  0  0  0  0  0  0  0  0
    4.8753   -0.2854   31.9123 N   0  0  0  0  0  0  0  0  0  0  0  0
    4.1774   -1.3116   32.4256 C   0  0  0  0  0  0  0  0  0  0  0  0
    4.0620   -4.0467   34.7162 N   0  0  0  0  0  0  0  0  0  0  0  0
    3.1753   -5.0587   34.4599 N   0  0  0  0  0  0  0  0  0  0  0  0
    2.1442   -4.5499   33.8027 C   0  0  0  0  0  0  0  0  0  0  0  0
    1.1416   -5.1863   33.0120 C   0  0  0  0  0  0  0  0  0  0  0  0
    1.1805   -5.0787   31.5430 C   0  0  0  0  0  0  0  0  0  0  0  0
    0.4130   -5.8339   30.7451 C   0  0  0  0  0  0  0  0  0  0  0  0
   -0.4443   -6.7923   31.3242 C   0  0  0  0  0  0  0  0  0  0  0  0
   -1.2052   -7.7168   30.7894 N   0  0  0  0  0  0  0  0  0  0  0  0
   -1.8328   -8.3762   31.8095 N   0  0  0  0  0  0  0  0  0  0  0  0
   -1.4407   -7.8387   32.9434 C   0  0  0  0  0  0  0  0  0  0  0  0
   -0.5457   -6.8270   32.7072 N   0  0  0  0  0  0  0  0  0  0  0  0
    0.2146   -6.0143   33.5684 C   0  0  0  0  0  0  0  0  0  0  0  0
   -0.0189   -6.2067   35.2930 S   0  0  0  0  0  0  0  0  0  0  0  0
    1.3937   -7.1866   35.5378 C   0  0  0  0  0  0  0  0  0  0  0  0
    1.9650   -7.8966   34.5826 N   0  0  0  0  0  0  0  0  0  0  0  0
    3.1215   -8.4009   35.1094 N   0  0  0  0  0  0  0  0  0  0  0  0
    3.1680   -7.9889   36.3653 C   0  0  0  0  0  0  0  0  0  0  0  0
    4.1921   -8.3664   37.2719 C   0  0  0  0  0  0  0  0  0  0  0  0
    4.3034   -8.1498   38.6288 C   0  0  0  0  0  0  0  0  0  0  0  0
    5.4976   -8.7770   39.0590 C   0  0  0  0  0  0  0  0  0  0  0  0
    6.0846   -9.3497   37.9521 C   0  0  0  0  0  0  0  0  0  0  0  0
    5.2893   -9.0848   36.8688 N   0  0  0  0  0  0  0  0  0  0  0  0
    2.0854   -7.2257   36.7090 O   0  0  0  0  0  0  0  0  0  0  0  0
   -0.8985   -2.5042   36.3107 H   0  0  0  0  0  0  0  0  0  0  0  0
    0.9083   -2.9045   36.2720 H   0  0  0  0  0  0  0  0  0  0  0  0
   -0.8788   -1.8313   34.0114 H   0  0  0  0  0  0  0  0  0  0  0  0
    0.9134   -2.3841   32.5025 H   0  0  0  0  0  0  0  0  0  0  0  0
    1.6873   -1.1963   33.5509 H   0  0  0  0  0  0  0  0  0  0  0  0
    5.5739   -1.6622   35.4852 H   0  0  0  0  0  0  0  0  0  0  0  0
    6.9214    0.2263   34.5638 H   0  0  0  0  0  0  0  0  0  0  0  0
    6.4012    1.0596   32.2668 H   0  0  0  0  0  0  0  0  0  0  0  0
    3.4611   -1.7384   31.7299 H   0  0  0  0  0  0  0  0  0  0  0  0
    1.8690   -4.3629   31.1002 H   0  0  0  0  0  0  0  0  0  0  0  0
    0.4458   -5.7310   29.6690 H   0  0  0  0  0  0  0  0  0  0  0  0
   -1.7511   -8.1603   33.9281 H   0  0  0  0  0  0  0  0  0  0  0  0
    3.5947   -7.6112   39.2458 H   0  0  0  0  0  0  0  0  0  0  0  0
    5.8878   -8.8069   40.0686 H   0  0  0  0  0  0  0  0  0  0  0  0
    7.0011   -9.9135   37.8420 H   0  0  0  0  0  0  0  0  0  0  0  0
    5.4696   -9.3719   35.9143 H   0  0  0  0  0  0  0  0  0  0  0  0
  1  2  2  0
  2  3  1  0
  3  4  1  0
  4  5  1  0
  5  6  1  0
  6  7  2  0
  7  8  1  0
  8  9  2  0
  9 10  1  0
 10 11  2  0
  5 12  2  0
 12 13  1  0
 13 14  2  0
 14 15  1  0
 15 16  1  0
 16 17  2  0
 17 18  1  0
 18 19  2  0
 19 20  1  0
 20 21  2  0
 21 22  1  0
 22 23  1  0
 23 24  1  0
 24 25  1  0
 25 26  2  0
 26 27  1  0
 27 28  2  0
 28 29  1  0
 29 30  2  0
 30 31  1  0
 31 32  2  0
 32 33  1  0
 28 34  1  0
 14  4  1  0
 23 15  2  0
 34 25  1  0
 11  6  1  0
 22 18  1  0
 33 29  1  0
  1 35  1  0
  1 36  1  0
  2 37  1  0
  3 38  1  0
  3 39  1  0
  7 40  1  0
  8 41  1  0
  9 42  1  0
 11 43  1  0
 16 44  1  0
 17 45  1  0
 21 46  1  0
 30 47  1  0
 31 48  1  0
 32 49  1  0
 33 50  1  0
M  END
>  <Energy>  (639) 
86.163915988047549

>  <compound_id>  (639) 
4264

>  <target_id>  (639) 
1

>  <reference_id>  (639) 
149

>  <inspiration_ids>  (639) 
[149, 132]

>  <energy_score>  (639) 
-63.09557854393077

>  <distance_score>  (639) 
1.0266346875445418

>  <path>  (639) 
/opt/xchem-fragalysis-2/maxwin/BulkDock/SCRATCH/505735/C4264-P149/C4264-P149.minimised.mol

>  <scratch_subdir>  (639) 
/opt/xchem-fragalysis-2/maxwin/BulkDock/SCRATCH/505735/C4264-P149

>  <fragmenstein_runtime>  (639) 
2.035553216934204

>  <fragmenstein_outcome>  (639) 
too moved

>  <fragmenstein_mode>  (639) 
expansion

>  <fragmenstein_error>  (639) 


$$$$
C4264-P132
     RDKit          3D

 50 55  0  0  0  0  0  0  0  0999 V2000
    0.3006   -2.5815   35.8540 C   0  0  0  0  0  0  0  0  0  0  0  0
    0.2011   -2.2450   34.5600 C   0  0  0  0  0  0  0  0  0  0  0  0
    1.2806   -2.3109   33.5141 C   0  0  0  0  0  0  0  0  0  0  0  0
    2.3410   -3.2678   33.7933 N   0  0  0  0  0  0  0  0  0  0  0  0
    3.6541   -3.0037   34.1051 C   0  0  0  0  0  0  0  0  0  0  0  0
    4.3849   -1.8212   33.7120 C   0  0  0  0  0  0  0  0  0  0  0  0
    5.3660   -1.2546   34.5188 C   0  0  0  0  0  0  0  0  0  0  0  0
    6.0893   -0.1658   34.0416 C   0  0  0  0  0  0  0  0  0  0  0  0
    5.7964    0.3191   32.7751 C   0  0  0  0  0  0  0  0  0  0  0  0
    4.8608   -0.2193   31.9611 N   0  0  0  0  0  0  0  0  0  0  0  0
    4.2003   -1.2863   32.4390 C   0  0  0  0  0  0  0  0  0  0  0  0
    4.1719   -4.0882   34.6455 N   0  0  0  0  0  0  0  0  0  0  0  0
    3.3259   -5.1253   34.3531 N   0  0  0  0  0  0  0  0  0  0  0  0
    2.2776   -4.6328   33.7127 C   0  0  0  0  0  0  0  0  0  0  0  0
    1.2968   -5.2788   32.9064 C   0  0  0  0  0  0  0  0  0  0  0  0
    1.4086   -5.2321   31.4392 C   0  0  0  0  0  0  0  0  0  0  0  0
    0.6202   -5.9563   30.6320 C   0  0  0  0  0  0  0  0  0  0  0  0
   -0.3350   -6.8262   31.1996 C   0  0  0  0  0  0  0  0  0  0  0  0
   -1.1712   -7.6836   30.6610 N   0  0  0  0  0  0  0  0  0  0  0  0
   -1.8462   -8.2959   31.6806 N   0  0  0  0  0  0  0  0  0  0  0  0
   -1.4101   -7.7948   32.8139 C   0  0  0  0  0  0  0  0  0  0  0  0
   -0.4607   -6.8364   32.5821 N   0  0  0  0  0  0  0  0  0  0  0  0
    0.3152   -6.0475   33.4523 C   0  0  0  0  0  0  0  0  0  0  0  0
    0.0136   -6.1734   35.1773 S   0  0  0  0  0  0  0  0  0  0  0  0
    1.4203   -7.1317   35.5185 C   0  0  0  0  0  0  0  0  0  0  0  0
    1.9905   -7.9143   34.6241 N   0  0  0  0  0  0  0  0  0  0  0  0
    3.1317   -8.3970   35.1947 N   0  0  0  0  0  0  0  0  0  0  0  0
    3.1725   -7.9053   36.4214 C   0  0  0  0  0  0  0  0  0  0  0  0
    4.1784   -8.2585   37.3568 C   0  0  0  0  0  0  0  0  0  0  0  0
    4.2792   -7.9885   38.7044 C   0  0  0  0  0  0  0  0  0  0  0  0
    5.4530   -8.6261   39.1749 C   0  0  0  0  0  0  0  0  0  0  0  0
    6.0395   -9.2582   38.1008 C   0  0  0  0  0  0  0  0  0  0  0  0
    5.2634   -9.0198   36.9985 N   0  0  0  0  0  0  0  0  0  0  0  0
    2.0943   -7.1068   36.7016 O   0  0  0  0  0  0  0  0  0  0  0  0
   -0.5563   -2.4848   36.5165 H   0  0  0  0  0  0  0  0  0  0  0  0
    1.2196   -2.9540   36.2985 H   0  0  0  0  0  0  0  0  0  0  0  0
   -0.7589   -1.8646   34.2111 H   0  0  0  0  0  0  0  0  0  0  0  0
    0.8443   -2.5798   32.5467 H   0  0  0  0  0  0  0  0  0  0  0  0
    1.7075   -1.3105   33.4073 H   0  0  0  0  0  0  0  0  0  0  0  0
    5.5811   -1.6652   35.5024 H   0  0  0  0  0  0  0  0  0  0  0  0
    6.8627    0.2974   34.6449 H   0  0  0  0  0  0  0  0  0  0  0  0
    6.3297    1.1738   32.3672 H   0  0  0  0  0  0  0  0  0  0  0  0
    3.5085   -1.7224   31.7244 H   0  0  0  0  0  0  0  0  0  0  0  0
    2.1712   -4.5873   31.0077 H   0  0  0  0  0  0  0  0  0  0  0  0
    0.7197   -5.8998   29.5573 H   0  0  0  0  0  0  0  0  0  0  0  0
   -1.7365   -8.0972   33.7976 H   0  0  0  0  0  0  0  0  0  0  0  0
    3.5752   -7.4132   39.2929 H   0  0  0  0  0  0  0  0  0  0  0  0
    5.8278   -8.6272   40.1908 H   0  0  0  0  0  0  0  0  0  0  0  0
    6.9409   -9.8523   38.0280 H   0  0  0  0  0  0  0  0  0  0  0  0
    5.4465   -9.3577   36.0617 H   0  0  0  0  0  0  0  0  0  0  0  0
  1  2  2  0
  2  3  1  0
  3  4  1  0
  4  5  1  0
  5  6  1  0
  6  7  2  0
  7  8  1  0
  8  9  2  0
  9 10  1  0
 10 11  2  0
  5 12  2  0
 12 13  1  0
 13 14  2  0
 14 15  1  0
 15 16  1  0
 16 17  2  0
 17 18  1  0
 18 19  2  0
 19 20  1  0
 20 21  2  0
 21 22  1  0
 22 23  1  0
 23 24  1  0
 24 25  1  0
 25 26  2  0
 26 27  1  0
 27 28  2  0
 28 29  1  0
 29 30  2  0
 30 31  1  0
 31 32  2  0
 32 33  1  0
 28 34  1  0
 14  4  1  0
 23 15  2  0
 34 25  1  0
 11  6  1  0
 22 18  1  0
 33 29  1  0
  1 35  1  0
  1 36  1  0
  2 37  1  0
  3 38  1  0
  3 39  1  0
  7 40  1  0
  8 41  1  0
  9 42  1  0
 11 43  1  0
 16 44  1  0
 17 45  1  0
 21 46  1  0
 30 47  1  0
 31 48  1  0
 32 49  1  0
 33 50  1  0
M  END
>  <Energy>  (640) 
85.547510311376428

>  <compound_id>  (640) 
4264

>  <target_id>  (640) 
1

>  <reference_id>  (640) 
132

>  <inspiration_ids>  (640) 
[149, 132]

>  <energy_score>  (640) 
-63.71198422060405

>  <distance_score>  (640) 
1.037151462739106

>  <path>  (640) 
/opt/xchem-fragalysis-2/maxwin/BulkDock/SCRATCH/505735/C4264-P132/C4264-P132.minimised.mol

>  <scratch_subdir>  (640) 
/opt/xchem-fragalysis-2/maxwin/BulkDock/SCRATCH/505735/C4264-P132

>  <fragmenstein_runtime>  (640) 
1.8384976387023926

>  <fragmenstein_outcome>  (640) 
too moved

>  <fragmenstein_mode>  (640) 
expansion

>  <fragmenstein_error>  (640) 


$$$$
C2407-P149
     RDKit          3D

 42 46  0  0  0  0  0  0  0  0999 V2000
    3.9667   -8.5918   38.7645 C   0  0  0  0  0  0  0  0  0  0  0  0
    4.8684   -8.9177   37.7774 C   0  0  0  0  0  0  0  0  0  0  0  0
    4.4958   -8.2503   36.6408 N   0  0  0  0  0  0  0  0  0  0  0  0
    3.3694   -7.4886   36.8818 C   0  0  0  0  0  0  0  0  0  0  0  0
    2.8023   -6.6684   35.8559 C   0  0  0  0  0  0  0  0  0  0  0  0
    3.3363   -6.6286   34.6513 N   0  0  0  0  0  0  0  0  0  0  0  0
    2.6251   -5.7166   33.9214 N   0  0  0  0  0  0  0  0  0  0  0  0
    1.6562   -5.2582   34.6908 C   0  0  0  0  0  0  0  0  0  0  0  0
    0.3036   -4.3543   33.9683 S   0  0  0  0  0  4  0  0  0  0  0  0
    0.8288   -2.7425   33.4230 C   0  0  0  0  0  0  0  0  0  0  0  0
    0.0413   -2.0984   32.2809 C   0  0  0  0  0  0  0  0  0  0  0  0
   -1.1381   -1.3938   32.5115 C   0  0  0  0  0  0  0  0  0  0  0  0
   -1.7356   -0.6974   31.4597 C   0  0  0  0  0  0  0  0  0  0  0  0
   -1.2780   -0.6717   30.1937 N   0  0  0  0  0  0  0  0  0  0  0  0
   -0.1538   -1.3615   29.9624 C   0  0  0  0  0  0  0  0  0  0  0  0
    0.5401   -2.0397   30.9638 C   0  0  0  0  0  0  0  0  0  0  0  0
    0.0246   -5.3613   32.6161 C   0  0  0  0  0  0  0  0  0  0  0  0
    0.7824   -5.1635   31.5262 C   0  0  0  0  0  0  0  0  0  0  0  0
    0.6065   -5.9977   30.3693 C   0  0  0  0  0  0  0  0  0  0  0  0
   -0.2047   -7.0658   30.4060 C   0  0  0  0  0  0  0  0  0  0  0  0
   -0.8979   -7.3706   31.5953 C   0  0  0  0  0  0  0  0  0  0  0  0
   -1.6886   -8.3650   31.9064 N   0  0  0  0  0  0  0  0  0  0  0  0
   -2.0263   -8.2072   33.2267 N   0  0  0  0  0  0  0  0  0  0  0  0
   -1.4471   -7.1171   33.6778 C   0  0  0  0  0  0  0  0  0  0  0  0
   -0.7614   -6.5085   32.6686 N   0  0  0  0  0  0  0  0  0  0  0  0
    1.6962   -5.8353   35.9483 O   0  0  0  0  0  0  0  0  0  0  0  0
    3.0173   -7.6977   38.1988 C   0  0  0  0  0  0  0  0  0  0  0  0
    3.9799   -8.9599   39.7828 H   0  0  0  0  0  0  0  0  0  0  0  0
    5.7373   -9.5623   37.7860 H   0  0  0  0  0  0  0  0  0  0  0  0
    4.9817   -8.2822   35.7529 H   0  0  0  0  0  0  0  0  0  0  0  0
   -0.7619   -4.3051   34.8011 H   0  0  0  0  0  0  0  0  0  0  0  0
    1.8892   -2.8093   33.1559 H   0  0  0  0  0  0  0  0  0  0  0  0
    0.7727   -2.0918   34.3036 H   0  0  0  0  0  0  0  0  0  0  0  0
   -1.5843   -1.3538   33.5006 H   0  0  0  0  0  0  0  0  0  0  0  0
   -2.6462   -0.1302   31.6242 H   0  0  0  0  0  0  0  0  0  0  0  0
    0.2106   -1.3285   28.9388 H   0  0  0  0  0  0  0  0  0  0  0  0
    1.4976   -2.4753   30.6998 H   0  0  0  0  0  0  0  0  0  0  0  0
    1.5781   -4.4352   31.4715 H   0  0  0  0  0  0  0  0  0  0  0  0
    1.1677   -5.7237   29.4845 H   0  0  0  0  0  0  0  0  0  0  0  0
   -0.3498   -7.7293   29.5680 H   0  0  0  0  0  0  0  0  0  0  0  0
   -1.4967   -6.7430   34.6896 H   0  0  0  0  0  0  0  0  0  0  0  0
    2.1693   -7.2555   38.7071 H   0  0  0  0  0  0  0  0  0  0  0  0
  1  2  2  0
  2  3  1  0
  3  4  1  0
  4  5  1  0
  5  6  2  0
  6  7  1  0
  7  8  2  0
  8  9  1  0
  9 10  1  0
 10 11  1  0
 11 12  2  0
 12 13  1  0
 13 14  2  0
 14 15  1  0
 15 16  2  0
  9 17  1  0
 17 18  2  0
 18 19  1  0
 19 20  2  0
 20 21  1  0
 21 22  2  0
 22 23  1  0
 23 24  2  0
 24 25  1  0
  8 26  1  0
  4 27  2  0
 27  1  1  0
 26  5  1  0
 16 11  1  0
 25 17  1  0
 25 21  1  0
  1 28  1  0
  2 29  1  0
  3 30  1  0
  9 31  1  0
 10 32  1  0
 10 33  1  0
 12 34  1  0
 13 35  1  0
 15 36  1  0
 16 37  1  0
 18 38  1  0
 19 39  1  0
 20 40  1  0
 24 41  1  0
 27 42  1  0
M  END
>  <Energy>  (641) 
68.287956830426808

>  <compound_id>  (641) 
2407

>  <target_id>  (641) 
1

>  <reference_id>  (641) 
149

>  <inspiration_ids>  (641) 
[149, 134]

>  <energy_score>  (641) 
-28.24646534830108

>  <distance_score>  (641) 
1.5326539433502702

>  <path>  (641) 
/opt/xchem-fragalysis-2/maxwin/BulkDock/SCRATCH/505735/C2407-P149/C2407-P149.minimised.mol

>  <scratch_subdir>  (641) 
/opt/xchem-fragalysis-2/maxwin/BulkDock/SCRATCH/505735/C2407-P149

>  <fragmenstein_runtime>  (641) 
3.205188512802124

>  <fragmenstein_outcome>  (641) 
too moved

>  <fragmenstein_mode>  (641) 
expansion

>  <fragmenstein_error>  (641) 


$$$$
C2407-P134
     RDKit          3D

 42 46  0  0  0  0  0  0  0  0999 V2000
    3.9478   -8.5253   38.7411 C   0  0  0  0  0  0  0  0  0  0  0  0
    4.9005   -8.7502   37.7739 C   0  0  0  0  0  0  0  0  0  0  0  0
    4.5299   -8.0469   36.6583 N   0  0  0  0  0  0  0  0  0  0  0  0
    3.3513   -7.3651   36.8913 C   0  0  0  0  0  0  0  0  0  0  0  0
    2.7711   -6.5306   35.8829 C   0  0  0  0  0  0  0  0  0  0  0  0
    3.3533   -6.3886   34.7091 N   0  0  0  0  0  0  0  0  0  0  0  0
    2.6065   -5.4963   33.9884 N   0  0  0  0  0  0  0  0  0  0  0  0
    1.5713   -5.1501   34.7305 C   0  0  0  0  0  0  0  0  0  0  0  0
    0.1647   -4.3564   33.9824 S   0  0  0  0  0  4  0  0  0  0  0  0
    0.4425   -2.6514   33.6048 C   0  0  0  0  0  0  0  0  0  0  0  0
   -0.0338   -2.0593   32.2756 C   0  0  0  0  0  0  0  0  0  0  0  0
    0.6217   -0.8994   31.8098 C   0  0  0  0  0  0  0  0  0  0  0  0
    0.2752   -0.3311   30.5860 C   0  0  0  0  0  0  0  0  0  0  0  0
   -0.6673   -0.8401   29.7780 N   0  0  0  0  0  0  0  0  0  0  0  0
   -1.3149   -1.9308   30.2336 C   0  0  0  0  0  0  0  0  0  0  0  0
   -1.0816   -2.5253   31.4772 C   0  0  0  0  0  0  0  0  0  0  0  0
    0.0458   -5.3231   32.5837 C   0  0  0  0  0  0  0  0  0  0  0  0
    0.7930   -5.0198   31.5070 C   0  0  0  0  0  0  0  0  0  0  0  0
    0.7520   -5.8941   30.3558 C   0  0  0  0  0  0  0  0  0  0  0  0
    0.0256   -7.0251   30.3740 C   0  0  0  0  0  0  0  0  0  0  0  0
   -0.7535   -7.3443   31.4982 C   0  0  0  0  0  0  0  0  0  0  0  0
   -1.5692   -8.3368   31.7375 N   0  0  0  0  0  0  0  0  0  0  0  0
   -1.9504   -8.2227   33.0475 N   0  0  0  0  0  0  0  0  0  0  0  0
   -1.3755   -7.1604   33.5612 C   0  0  0  0  0  0  0  0  0  0  0  0
   -0.6761   -6.5098   32.5910 N   0  0  0  0  0  0  0  0  0  0  0  0
    1.6032   -5.7859   35.9621 O   0  0  0  0  0  0  0  0  0  0  0  0
    2.9668   -7.6605   38.1827 C   0  0  0  0  0  0  0  0  0  0  0  0
    3.9467   -8.9418   39.7407 H   0  0  0  0  0  0  0  0  0  0  0  0
    5.8050   -9.3437   37.7847 H   0  0  0  0  0  0  0  0  0  0  0  0
    5.0489   -8.0025   35.7901 H   0  0  0  0  0  0  0  0  0  0  0  0
   -0.9247   -4.5060   34.7716 H   0  0  0  0  0  0  0  0  0  0  0  0
    1.5257   -2.5050   33.6911 H   0  0  0  0  0  0  0  0  0  0  0  0
   -0.0372   -2.0888   34.4137 H   0  0  0  0  0  0  0  0  0  0  0  0
    1.4195   -0.4413   32.3888 H   0  0  0  0  0  0  0  0  0  0  0  0
    0.7770    0.5578   30.2143 H   0  0  0  0  0  0  0  0  0  0  0  0
   -2.0458   -2.3430   29.5450 H   0  0  0  0  0  0  0  0  0  0  0  0
   -1.6900   -3.3696   31.7735 H   0  0  0  0  0  0  0  0  0  0  0  0
    1.4675   -4.1713   31.4543 H   0  0  0  0  0  0  0  0  0  0  0  0
    1.3747   -5.6337   29.5055 H   0  0  0  0  0  0  0  0  0  0  0  0
    0.0399   -7.7690   29.5950 H   0  0  0  0  0  0  0  0  0  0  0  0
   -1.4520   -6.8323   34.5871 H   0  0  0  0  0  0  0  0  0  0  0  0
    2.0748   -7.2964   38.6779 H   0  0  0  0  0  0  0  0  0  0  0  0
  1  2  2  0
  2  3  1  0
  3  4  1  0
  4  5  1  0
  5  6  2  0
  6  7  1  0
  7  8  2  0
  8  9  1  0
  9 10  1  0
 10 11  1  0
 11 12  2  0
 12 13  1  0
 13 14  2  0
 14 15  1  0
 15 16  2  0
  9 17  1  0
 17 18  2  0
 18 19  1  0
 19 20  2  0
 20 21  1  0
 21 22  2  0
 22 23  1  0
 23 24  2  0
 24 25  1  0
  8 26  1  0
  4 27  2  0
 27  1  1  0
 26  5  1  0
 16 11  1  0
 25 17  1  0
 25 21  1  0
  1 28  1  0
  2 29  1  0
  3 30  1  0
  9 31  1  0
 10 32  1  0
 10 33  1  0
 12 34  1  0
 13 35  1  0
 15 36  1  0
 16 37  1  0
 18 38  1  0
 19 39  1  0
 20 40  1  0
 24 41  1  0
 27 42  1  0
M  END
>  <Energy>  (642) 
70.951681404013968

>  <compound_id>  (642) 
2407

>  <target_id>  (642) 
1

>  <reference_id>  (642) 
134

>  <inspiration_ids>  (642) 
[149, 134]

>  <energy_score>  (642) 
-25.582740774711738

>  <distance_score>  (642) 
1.3838796927695571

>  <path>  (642) 
/opt/xchem-fragalysis-2/maxwin/BulkDock/SCRATCH/505735/C2407-P134/C2407-P134.minimised.mol

>  <scratch_subdir>  (642) 
/opt/xchem-fragalysis-2/maxwin/BulkDock/SCRATCH/505735/C2407-P134

>  <fragmenstein_runtime>  (642) 
2.2790706157684326

>  <fragmenstein_outcome>  (642) 
too moved

>  <fragmenstein_mode>  (642) 
expansion

>  <fragmenstein_error>  (642) 


$$$$
C4241-P136
     RDKit          2D

  0  0  0  0  0  0  0  0  0  0999 V2000
M  END
>  <compound_id>  (643) 
4241

>  <target_id>  (643) 
1

>  <reference_id>  (643) 
136

>  <inspiration_ids>  (643) 
[149, 136]

>  <energy_score>  (643) 
nan

>  <distance_score>  (643) 
nan

>  <path>  (643) 
/opt/xchem-fragalysis-2/maxwin/BulkDock/SCRATCH/505735/C4241-P136/C4241-P136.minimised.mol

>  <scratch_subdir>  (643) 
/opt/xchem-fragalysis-2/maxwin/BulkDock/SCRATCH/505735/C4241-P136

>  <fragmenstein_runtime>  (643) 
0.19890999794006348

>  <fragmenstein_outcome>  (643) 
too distant

>  <fragmenstein_mode>  (643) 
expansion

>  <fragmenstein_error>  (643) 
DistanceError: hit0+hit1

$$$$
C2645-P149
     RDKit          3D

 52 57  0  0  0  0  0  0  0  0999 V2000
    2.0213   -4.1972   37.1715 O   0  0  0  0  0  0  0  0  0  0  0  0
    2.4784   -4.8165   38.1011 C   0  0  0  0  0  0  0  0  0  0  0  0
    3.7817   -4.2637   38.7471 C   0  0  0  0  0  0  0  0  0  0  0  0
    4.6699   -5.3605   39.8814 S   0  0  0  0  0  0  0  0  0  0  0  0
    3.3944   -2.7332   39.5804 Cl  0  0  0  0  0  0  0  0  0  0  0  0
    2.0252   -6.0162   38.7286 N   0  0  0  0  0  0  0  0  0  0  0  0
    1.0726   -5.6744   39.8924 C   0  0  0  0  0  0  0  0  0  0  0  0
    1.0651   -6.7298   40.9525 C   0  0  0  0  0  0  0  0  0  0  0  0
    1.1571   -6.6199   42.3661 C   0  0  0  0  0  0  0  0  0  0  0  0
    1.1346   -7.8605   42.9744 C   0  0  0  0  0  0  0  0  0  0  0  0
    0.9888   -9.1390   41.8369 S   0  0  0  0  0  0  0  0  0  0  0  0
    0.9732   -8.0364   40.5658 C   0  0  0  0  0  0  0  0  0  0  0  0
    0.9187   -8.3486   39.1276 C   0  0  0  0  0  0  0  0  0  0  0  0
    0.8709   -6.9803   38.3555 C   0  0  0  0  0  0  0  0  0  0  0  0
    1.2053   -7.3314   36.9578 N   0  0  0  0  0  0  0  0  0  0  0  0
    0.3680   -7.2388   35.8465 C   0  0  0  0  0  0  0  0  0  0  0  0
    1.1101   -6.7505   34.6788 C   0  0  0  0  0  0  0  0  0  0  0  0
    1.0411   -5.4219   34.4361 C   0  0  0  0  0  0  0  0  0  0  0  0
    2.2451   -4.5908   33.5171 S   0  0  0  0  0  0  0  0  0  0  0  0
    3.6835   -5.2843   34.2464 C   0  0  0  0  0  0  0  0  0  0  0  0
    4.8521   -5.2878   33.6406 N   0  0  0  0  0  0  0  0  0  0  0  0
    5.6786   -6.1174   34.3705 N   0  0  0  0  0  0  0  0  0  0  0  0
    4.9739   -6.5612   35.3923 C   0  0  0  0  0  0  0  0  0  0  0  0
    5.4510   -7.5376   36.3159 C   0  0  0  0  0  0  0  0  0  0  0  0
    4.8618   -8.1177   37.4216 C   0  0  0  0  0  0  0  0  0  0  0  0
    5.7810   -9.0473   37.9683 C   0  0  0  0  0  0  0  0  0  0  0  0
    6.9058   -9.0197   37.1776 C   0  0  0  0  0  0  0  0  0  0  0  0
    6.6985   -8.1015   36.1816 N   0  0  0  0  0  0  0  0  0  0  0  0
    3.7110   -6.0304   35.4041 O   0  0  0  0  0  0  0  0  0  0  0  0
    0.0057   -4.7150   35.0710 N   0  0  0  0  0  0  0  0  0  0  0  0
   -0.3190   -3.3899   35.1459 C   0  0  0  0  0  0  0  0  0  0  0  0
   -1.3398   -3.2182   35.9565 N   0  0  0  0  0  0  0  0  0  0  0  0
   -1.7271   -4.4537   36.4198 N   0  0  0  0  0  0  0  0  0  0  0  0
   -0.9614   -5.3469   35.8456 C   0  0  0  0  0  0  0  0  0  0  0  0
   -0.9034   -6.7804   35.9129 C   0  0  0  0  0  0  0  0  0  0  0  0
    4.4683   -4.0219   37.9293 H   0  0  0  0  0  0  0  0  0  0  0  0
    5.5612   -4.4433   40.2807 H   0  0  0  0  0  0  0  0  0  0  0  0
    1.5401   -4.8058   40.3791 H   0  0  0  0  0  0  0  0  0  0  0  0
    0.0940   -5.2485   39.6186 H   0  0  0  0  0  0  0  0  0  0  0  0
    1.2445   -5.6911   42.9172 H   0  0  0  0  0  0  0  0  0  0  0  0
    1.1925   -8.0821   44.0312 H   0  0  0  0  0  0  0  0  0  0  0  0
    1.8042   -8.9264   38.8383 H   0  0  0  0  0  0  0  0  0  0  0  0
    0.0275   -8.9261   38.8869 H   0  0  0  0  0  0  0  0  0  0  0  0
   -0.1372   -6.5451   38.3251 H   0  0  0  0  0  0  0  0  0  0  0  0
    2.1765   -7.1153   36.7652 H   0  0  0  0  0  0  0  0  0  0  0  0
    1.8693   -7.4036   34.2845 H   0  0  0  0  0  0  0  0  0  0  0  0
    3.8826   -7.9056   37.8226 H   0  0  0  0  0  0  0  0  0  0  0  0
    5.6352   -9.6645   38.8466 H   0  0  0  0  0  0  0  0  0  0  0  0
    7.8373   -9.5664   37.2414 H   0  0  0  0  0  0  0  0  0  0  0  0
    7.3594   -7.8649   35.4508 H   0  0  0  0  0  0  0  0  0  0  0  0
    0.2188   -2.6059   34.6347 H   0  0  0  0  0  0  0  0  0  0  0  0
   -1.5996   -7.1889   35.1787 H   0  0  0  0  0  0  0  0  0  0  0  0
  1  2  2  0
  2  3  1  0
  3  4  1  0
  3  5  1  0
  2  6  1  0
  6  7  1  0
  7  8  1  0
  8  9  1  0
  9 10  2  0
 10 11  1  0
 11 12  1  0
 12 13  1  0
 13 14  1  0
 14 15  1  0
 15 16  1  0
 16 17  1  0
 17 18  2  0
 18 19  1  0
 19 20  1  0
 20 21  2  0
 21 22  1  0
 22 23  2  0
 23 24  1  0
 24 25  2  0
 25 26  1  0
 26 27  2  0
 27 28  1  0
 23 29  1  0
 18 30  1  0
 30 31  1  0
 31 32  2  0
 32 33  1  0
 33 34  2  0
 34 35  1  0
 14  6  1  0
 35 16  2  0
 12  8  2  0
 29 20  1  0
 34 30  1  0
 28 24  1  0
  3 36  1  0
  4 37  1  0
  7 38  1  0
  7 39  1  0
  9 40  1  0
 10 41  1  0
 13 42  1  0
 13 43  1  0
 14 44  1  0
 15 45  1  0
 17 46  1  0
 25 47  1  0
 26 48  1  0
 27 49  1  0
 28 50  1  0
 31 51  1  0
 35 52  1  0
M  END
>  <Energy>  (644) 
164.76885505437167

>  <compound_id>  (644) 
2645

>  <target_id>  (644) 
1

>  <reference_id>  (644) 
149

>  <inspiration_ids>  (644) 
[149, 140]

>  <energy_score>  (644) 
56.20455462821455

>  <distance_score>  (644) 
3.3866325023560915

>  <path>  (644) 
/opt/xchem-fragalysis-2/maxwin/BulkDock/SCRATCH/505735/C2645-P149/C2645-P149.minimised.mol

>  <scratch_subdir>  (644) 
/opt/xchem-fragalysis-2/maxwin/BulkDock/SCRATCH/505735/C2645-P149

>  <fragmenstein_runtime>  (644) 
5.660767316818237

>  <fragmenstein_outcome>  (644) 
too moved

>  <fragmenstein_mode>  (644) 
expansion

>  <fragmenstein_error>  (644) 


$$$$
C2645-P140
     RDKit          3D

 52 57  0  0  0  0  0  0  0  0999 V2000
    4.7025   -0.8385   35.3547 O   0  0  0  0  0  0  0  0  0  0  0  0
    4.8189   -1.7171   34.5362 C   0  0  0  0  0  0  0  0  0  0  0  0
    6.2587   -2.0886   34.0887 C   0  0  0  0  0  0  0  0  0  0  0  0
    6.4030   -2.9017   32.4706 S   0  0  0  0  0  0  0  0  0  0  0  0
    7.0117   -3.1053   35.3466 Cl  0  0  0  0  0  0  0  0  0  0  0  0
    3.8263   -2.4923   33.8582 N   0  0  0  0  0  0  0  0  0  0  0  0
    3.5208   -3.7768   34.6600 C   0  0  0  0  0  0  0  0  0  0  0  0
    2.9991   -3.6230   36.0601 C   0  0  0  0  0  0  0  0  0  0  0  0
    3.3996   -4.2408   37.2790 C   0  0  0  0  0  0  0  0  0  0  0  0
    2.5847   -3.8701   38.3317 C   0  0  0  0  0  0  0  0  0  0  0  0
    1.3862   -2.7350   37.8456 S   0  0  0  0  0  0  0  0  0  0  0  0
    1.9611   -2.7604   36.2637 C   0  0  0  0  0  0  0  0  0  0  0  0
    1.4842   -1.9505   35.1256 C   0  0  0  0  0  0  0  0  0  0  0  0
    2.3143   -2.3841   33.8615 C   0  0  0  0  0  0  0  0  0  0  0  0
    1.6879   -3.1277   32.7576 N   0  0  0  0  0  0  0  0  0  0  0  0
    0.8275   -4.2052   32.6754 C   0  0  0  0  0  0  0  0  0  0  0  0
    0.2620   -4.7665   33.8918 C   0  0  0  0  0  0  0  0  0  0  0  0
   -0.3934   -5.9408   33.8835 C   0  0  0  0  0  0  0  0  0  0  0  0
   -0.7169   -6.7398   35.3873 S   0  0  0  0  0  0  0  0  0  0  0  0
    0.9629   -7.1065   35.7299 C   0  0  0  0  0  0  0  0  0  0  0  0
    1.8773   -7.3159   34.7961 N   0  0  0  0  0  0  0  0  0  0  0  0
    3.0588   -7.5664   35.4455 N   0  0  0  0  0  0  0  0  0  0  0  0
    2.7942   -7.5174   36.7408 C   0  0  0  0  0  0  0  0  0  0  0  0
    3.7581   -7.8198   37.7437 C   0  0  0  0  0  0  0  0  0  0  0  0
    3.6230   -7.8989   39.1142 C   0  0  0  0  0  0  0  0  0  0  0  0
    4.8838   -8.2669   39.6459 C   0  0  0  0  0  0  0  0  0  0  0  0
    5.7526   -8.4062   38.5869 C   0  0  0  0  0  0  0  0  0  0  0  0
    5.0598   -8.1363   37.4365 N   0  0  0  0  0  0  0  0  0  0  0  0
    1.4780   -7.2169   36.9897 O   0  0  0  0  0  0  0  0  0  0  0  0
   -0.6572   -6.5395   32.6554 N   0  0  0  0  0  0  0  0  0  0  0  0
   -1.3410   -7.6692   32.3033 C   0  0  0  0  0  0  0  0  0  0  0  0
   -1.3093   -7.8404   31.0015 N   0  0  0  0  0  0  0  0  0  0  0  0
   -0.5856   -6.8018   30.4655 N   0  0  0  0  0  0  0  0  0  0  0  0
   -0.2173   -6.0120   31.4528 C   0  0  0  0  0  0  0  0  0  0  0  0
    0.5530   -4.8159   31.4959 C   0  0  0  0  0  0  0  0  0  0  0  0
    6.8351   -1.1595   34.0338 H   0  0  0  0  0  0  0  0  0  0  0  0
    7.7326   -3.0605   32.5258 H   0  0  0  0  0  0  0  0  0  0  0  0
    3.0191   -4.5612   34.0821 H   0  0  0  0  0  0  0  0  0  0  0  0
    4.5110   -4.2371   34.7870 H   0  0  0  0  0  0  0  0  0  0  0  0
    4.2330   -4.9232   37.3900 H   0  0  0  0  0  0  0  0  0  0  0  0
    2.6424   -4.1903   39.3635 H   0  0  0  0  0  0  0  0  0  0  0  0
    0.4078   -2.0478   34.9549 H   0  0  0  0  0  0  0  0  0  0  0  0
    1.6882   -0.8946   35.3488 H   0  0  0  0  0  0  0  0  0  0  0  0
    2.2857   -1.3914   33.3779 H   0  0  0  0  0  0  0  0  0  0  0  0
    2.1059   -2.8694   31.8644 H   0  0  0  0  0  0  0  0  0  0  0  0
    0.4552   -4.2898   34.8379 H   0  0  0  0  0  0  0  0  0  0  0  0
    2.7102   -7.7295   39.6737 H   0  0  0  0  0  0  0  0  0  0  0  0
    5.1260   -8.4239   40.6898 H   0  0  0  0  0  0  0  0  0  0  0  0
    6.7991   -8.6805   38.5549 H   0  0  0  0  0  0  0  0  0  0  0  0
    5.4401   -8.1744   36.4990 H   0  0  0  0  0  0  0  0  0  0  0  0
   -1.8500   -8.3009   33.0121 H   0  0  0  0  0  0  0  0  0  0  0  0
    0.9518   -4.4469   30.5573 H   0  0  0  0  0  0  0  0  0  0  0  0
  1  2  2  0
  2  3  1  0
  3  4  1  0
  3  5  1  0
  2  6  1  0
  6  7  1  0
  7  8  1  0
  8  9  1  0
  9 10  2  0
 10 11  1  0
 11 12  1  0
 12 13  1  0
 13 14  1  0
 14 15  1  0
 15 16  1  0
 16 17  1  0
 17 18  2  0
 18 19  1  0
 19 20  1  0
 20 21  2  0
 21 22  1  0
 22 23  2  0
 23 24  1  0
 24 25  2  0
 25 26  1  0
 26 27  2  0
 27 28  1  0
 23 29  1  0
 18 30  1  0
 30 31  1  0
 31 32  2  0
 32 33  1  0
 33 34  2  0
 34 35  1  0
 14  6  1  0
 35 16  2  0
 12  8  2  0
 29 20  1  0
 34 30  1  0
 28 24  1  0
  3 36  1  0
  4 37  1  0
  7 38  1  0
  7 39  1  0
  9 40  1  0
 10 41  1  0
 13 42  1  0
 13 43  1  0
 14 44  1  0
 15 45  1  0
 17 46  1  0
 25 47  1  0
 26 48  1  0
 27 49  1  0
 28 50  1  0
 31 51  1  0
 35 52  1  0
M  END
>  <Energy>  (645) 
122.06376120191548

>  <compound_id>  (645) 
2645

>  <target_id>  (645) 
1

>  <reference_id>  (645) 
140

>  <inspiration_ids>  (645) 
[149, 140]

>  <energy_score>  (645) 
13.499460775760966

>  <distance_score>  (645) 
2.771088885643426

>  <path>  (645) 
/opt/xchem-fragalysis-2/maxwin/BulkDock/SCRATCH/505735/C2645-P140/C2645-P140.minimised.mol

>  <scratch_subdir>  (645) 
/opt/xchem-fragalysis-2/maxwin/BulkDock/SCRATCH/505735/C2645-P140

>  <fragmenstein_runtime>  (645) 
7.969931125640869

>  <fragmenstein_outcome>  (645) 
too moved

>  <fragmenstein_mode>  (645) 
expansion

>  <fragmenstein_error>  (645) 


$$$$
C4265-P149
     RDKit          3D

 66 72  0  0  0  0  0  0  0  0999 V2000
    1.9095   -7.1903   33.9173 O   0  0  0  0  0  0  0  0  0  0  0  0
    0.8461   -6.2001   34.1013 N   0  0  0  0  0  0  0  0  0  0  0  0
   -0.3165   -6.4569   33.2699 N   0  0  0  0  0  0  0  0  0  0  0  0
   -1.0219   -7.6982   33.5573 C   0  0  0  0  0  0  0  0  0  0  0  0
   -1.5715   -8.1756   32.2304 C   0  0  0  0  0  0  0  0  0  0  0  0
   -0.7230   -7.5433   31.1569 C   0  0  0  0  0  0  0  0  0  0  0  0
    0.0768   -6.4622   31.8445 C   0  0  0  0  0  0  0  0  0  0  0  0
   -0.1971   -5.1602   31.2400 N   0  0  0  0  0  0  0  0  0  0  0  0
    0.5916   -4.1519   31.9623 N   0  0  0  0  0  0  0  0  0  0  0  0
   -0.3095   -3.1609   32.5217 C   0  0  0  0  0  0  0  0  0  0  0  0
    0.1405   -1.8895   32.0108 N   0  0  0  0  0  0  0  0  0  0  0  0
   -0.4752   -0.7741   32.7159 C   0  0  0  0  0  0  0  0  0  0  0  0
   -0.4921   -1.0001   34.2311 C   0  0  0  0  0  0  0  0  0  0  0  0
    0.9083   -1.3210   34.7621 C   0  0  0  0  0  0  0  0  0  0  0  0
    1.0339   -2.8622   34.6142 C   0  0  0  0  0  0  0  0  0  0  0  0
    1.2413   -3.4833   36.0202 C   0  0  0  0  0  0  0  0  0  0  0  0
    1.6412   -4.9928   36.2063 C   0  0  0  0  0  0  0  0  0  0  0  0
    3.0602   -5.1973   35.7687 N   0  0  0  0  0  0  0  0  0  0  0  0
    3.8431   -4.9323   36.9659 N   0  0  0  0  0  0  0  0  0  0  0  0
    3.0417   -5.4745   38.0716 C   0  0  0  0  0  0  0  0  0  0  0  0
    3.3707   -6.9218   38.3025 C   0  0  0  0  0  0  0  0  0  0  0  0
    3.3677   -7.6727   39.4648 C   0  0  0  0  0  0  0  0  0  0  0  0
    3.8982   -8.9495   39.1589 C   0  0  0  0  0  0  0  0  0  0  0  0
    4.2109   -8.9533   37.8192 C   0  0  0  0  0  0  0  0  0  0  0  0
    3.8350   -7.7461   37.3004 N   0  0  0  0  0  0  0  0  0  0  0  0
    1.6962   -5.1604   37.6675 N   0  0  0  0  0  0  0  0  0  0  0  0
    0.5801   -5.8641   38.2444 C   0  0  0  0  0  0  0  0  0  0  0  0
   -0.6401   -5.4454   37.6138 O   0  0  0  0  0  0  0  0  0  0  0  0
   -0.7253   -5.8484   36.2231 C   0  0  0  0  0  0  0  0  0  0  0  0
    0.6495   -6.0573   35.5672 C   0  0  0  0  0  0  0  0  0  0  0  0
    1.0630   -7.3082   36.0375 F   0  0  0  0  0  0  0  0  0  0  0  0
   -0.2462   -3.2667   33.9878 N   0  0  0  0  0  0  0  0  0  0  0  0
   -1.2305   -2.2954   34.5053 C   0  0  0  0  0  0  0  0  0  0  0  0
    1.9488   -7.6028   34.8091 H   0  0  0  0  0  0  0  0  0  0  0  0
   -1.8480   -7.5364   34.2550 H   0  0  0  0  0  0  0  0  0  0  0  0
   -0.3708   -8.4382   34.0057 H   0  0  0  0  0  0  0  0  0  0  0  0
   -2.6073   -7.8651   32.1120 H   0  0  0  0  0  0  0  0  0  0  0  0
   -1.5660   -9.2587   32.1358 H   0  0  0  0  0  0  0  0  0  0  0  0
   -1.3339   -7.1701   30.3367 H   0  0  0  0  0  0  0  0  0  0  0  0
   -0.0638   -8.2817   30.6986 H   0  0  0  0  0  0  0  0  0  0  0  0
    1.1368   -6.6852   31.6947 H   0  0  0  0  0  0  0  0  0  0  0  0
    0.0619   -5.1531   30.2520 H   0  0  0  0  0  0  0  0  0  0  0  0
    0.9274   -4.6091   32.8200 H   0  0  0  0  0  0  0  0  0  0  0  0
   -1.3417   -3.3384   32.1871 H   0  0  0  0  0  0  0  0  0  0  0  0
    1.1480   -1.8788   32.1051 H   0  0  0  0  0  0  0  0  0  0  0  0
    0.0730    0.1445   32.4782 H   0  0  0  0  0  0  0  0  0  0  0  0
   -1.4985   -0.6310   32.3475 H   0  0  0  0  0  0  0  0  0  0  0  0
   -0.9395   -0.1426   34.7427 H   0  0  0  0  0  0  0  0  0  0  0  0
    1.6907   -0.7942   34.2047 H   0  0  0  0  0  0  0  0  0  0  0  0
    0.9787   -1.0041   35.8095 H   0  0  0  0  0  0  0  0  0  0  0  0
    1.9094   -3.1040   34.0023 H   0  0  0  0  0  0  0  0  0  0  0  0
    0.3465   -3.2778   36.6235 H   0  0  0  0  0  0  0  0  0  0  0  0
    2.0234   -2.8788   36.5082 H   0  0  0  0  0  0  0  0  0  0  0  0
    3.2729   -4.5266   35.0274 H   0  0  0  0  0  0  0  0  0  0  0  0
    4.7769   -5.3418   36.9757 H   0  0  0  0  0  0  0  0  0  0  0  0
    3.2904   -4.9162   38.9818 H   0  0  0  0  0  0  0  0  0  0  0  0
    3.0504   -7.3242   40.4398 H   0  0  0  0  0  0  0  0  0  0  0  0
    4.0534   -9.7685   39.8493 H   0  0  0  0  0  0  0  0  0  0  0  0
    4.6535   -9.7158   37.1937 H   0  0  0  0  0  0  0  0  0  0  0  0
    3.9401   -7.4388   36.3414 H   0  0  0  0  0  0  0  0  0  0  0  0
    0.4909   -5.5985   39.3030 H   0  0  0  0  0  0  0  0  0  0  0  0
    0.6436   -6.9568   38.1971 H   0  0  0  0  0  0  0  0  0  0  0  0
   -1.2876   -6.7848   36.2182 H   0  0  0  0  0  0  0  0  0  0  0  0
   -1.3202   -5.0897   35.7127 H   0  0  0  0  0  0  0  0  0  0  0  0
   -2.2063   -2.3517   34.0097 H   0  0  0  0  0  0  0  0  0  0  0  0
   -1.4115   -2.4428   35.5760 H   0  0  0  0  0  0  0  0  0  0  0  0
  1  2  1  0
  2  3  1  0
  3  4  1  0
  4  5  1  0
  5  6  1  0
  6  7  1  0
  7  8  1  0
  8  9  1  0
  9 10  1  0
 10 11  1  0
 11 12  1  0
 12 13  1  0
 13 14  1  0
 14 15  1  0
 15 16  1  0
 16 17  1  0
 17 18  1  0
 18 19  1  0
 19 20  1  0
 20 21  1  0
 21 22  2  0
 22 23  1  0
 23 24  2  0
 24 25  1  0
 20 26  1  0
 26 27  1  0
 27 28  1  0
 28 29  1  0
 29 30  1  0
 30 31  1  0
 15 32  1  0
 32 33  1  0
 30  2  1  0
  7  3  1  0
 32 10  1  0
 33 13  1  0
 26 17  1  0
 30 17  1  0
 25 21  1  0
  1 34  1  0
  4 35  1  0
  4 36  1  0
  5 37  1  0
  5 38  1  0
  6 39  1  0
  6 40  1  0
  7 41  1  0
  8 42  1  0
  9 43  1  0
 10 44  1  0
 11 45  1  0
 12 46  1  0
 12 47  1  0
 13 48  1  0
 14 49  1  0
 14 50  1  0
 15 51  1  0
 16 52  1  0
 16 53  1  0
 18 54  1  0
 19 55  1  0
 20 56  1  0
 22 57  1  0
 23 58  1  0
 24 59  1  0
 25 60  1  0
 27 61  1  0
 27 62  1  0
 29 63  1  0
 29 64  1  0
 33 65  1  0
 33 66  1  0
M  END
>  <Energy>  (646) 
61.453449323791212

>  <compound_id>  (646) 
4265

>  <target_id>  (646) 
1

>  <reference_id>  (646) 
149

>  <inspiration_ids>  (646) 
[149, 141]

>  <energy_score>  (646) 
-216.6940027603569

>  <distance_score>  (646) 
3.615600172018795

>  <path>  (646) 
/opt/xchem-fragalysis-2/maxwin/BulkDock/SCRATCH/505735/C4265-P149/C4265-P149.minimised.mol

>  <scratch_subdir>  (646) 
/opt/xchem-fragalysis-2/maxwin/BulkDock/SCRATCH/505735/C4265-P149

>  <fragmenstein_runtime>  (646) 
16.394111156463623

>  <fragmenstein_outcome>  (646) 
too moved

>  <fragmenstein_mode>  (646) 
expansion

>  <fragmenstein_error>  (646) 


$$$$
C4265-P141
     RDKit          3D

 66 72  0  0  0  0  0  0  0  0999 V2000
   -2.0688   -7.8993   34.6005 O   0  0  0  0  0  0  0  0  0  0  0  0
   -1.0257   -7.0191   34.0657 N   0  0  0  0  0  0  0  0  0  0  0  0
   -0.4053   -7.6240   32.8377 N   0  0  0  0  0  0  0  0  0  0  0  0
   -1.3851   -8.3258   31.9645 C   0  0  0  0  0  0  0  0  0  0  0  0
   -0.9168   -8.0958   30.5178 C   0  0  0  0  0  0  0  0  0  0  0  0
    0.2353   -7.1730   30.6229 C   0  0  0  0  0  0  0  0  0  0  0  0
   -0.0112   -6.5247   31.9431 C   0  0  0  0  0  0  0  0  0  0  0  0
   -1.1763   -5.6797   31.7996 N   0  0  0  0  0  0  0  0  0  0  0  0
   -0.8295   -4.4166   31.2902 N   0  0  0  0  0  0  0  0  0  0  0  0
   -0.9269   -3.4518   32.3465 C   0  0  0  0  0  0  0  0  0  0  0  0
   -0.2929   -2.2936   31.7868 N   0  0  0  0  0  0  0  0  0  0  0  0
   -0.2885   -1.2288   32.7706 C   0  0  0  0  0  0  0  0  0  0  0  0
    0.2854   -1.7643   34.0835 C   0  0  0  0  0  0  0  0  0  0  0  0
    1.6057   -2.5008   33.8369 C   0  0  0  0  0  0  0  0  0  0  0  0
    1.1672   -3.9814   33.6142 C   0  0  0  0  0  0  0  0  0  0  0  0
    1.7354   -4.8009   34.8061 C   0  0  0  0  0  0  0  0  0  0  0  0
    1.4126   -6.3113   35.0776 C   0  0  0  0  0  0  0  0  0  0  0  0
    2.2092   -7.1017   34.1105 N   0  0  0  0  0  0  0  0  0  0  0  0
    3.2147   -7.8395   34.9099 N   0  0  0  0  0  0  0  0  0  0  0  0
    3.3491   -7.0682   36.1597 C   0  0  0  0  0  0  0  0  0  0  0  0
    4.0030   -7.9524   37.1665 C   0  0  0  0  0  0  0  0  0  0  0  0
    3.5922   -8.5220   38.3582 C   0  0  0  0  0  0  0  0  0  0  0  0
    4.6693   -9.2810   38.8765 C   0  0  0  0  0  0  0  0  0  0  0  0
    5.7067   -9.1856   37.9810 C   0  0  0  0  0  0  0  0  0  0  0  0
    5.2972   -8.3857   36.9509 N   0  0  0  0  0  0  0  0  0  0  0  0
    1.9789   -6.7516   36.3674 N   0  0  0  0  0  0  0  0  0  0  0  0
    1.5086   -6.0156   37.5021 C   0  0  0  0  0  0  0  0  0  0  0  0
    0.2697   -5.3431   37.2297 O   0  0  0  0  0  0  0  0  0  0  0  0
   -0.6701   -6.0943   36.4295 C   0  0  0  0  0  0  0  0  0  0  0  0
   -0.0702   -6.8490   35.2085 C   0  0  0  0  0  0  0  0  0  0  0  0
    0.0672   -8.1699   35.6444 F   0  0  0  0  0  0  0  0  0  0  0  0
   -0.3085   -3.9283   33.6017 N   0  0  0  0  0  0  0  0  0  0  0  0
   -0.6155   -2.8790   34.5842 C   0  0  0  0  0  0  0  0  0  0  0  0
   -1.5681   -8.7420   34.7228 H   0  0  0  0  0  0  0  0  0  0  0  0
   -1.4062   -9.3833   32.1616 H   0  0  0  0  0  0  0  0  0  0  0  0
   -2.4102   -7.9672   32.0695 H   0  0  0  0  0  0  0  0  0  0  0  0
   -0.6426   -9.0189   29.9996 H   0  0  0  0  0  0  0  0  0  0  0  0
   -1.6578   -7.5430   29.9394 H   0  0  0  0  0  0  0  0  0  0  0  0
    0.3397   -6.4719   29.7942 H   0  0  0  0  0  0  0  0  0  0  0  0
    1.0949   -7.7950   30.6433 H   0  0  0  0  0  0  0  0  0  0  0  0
    0.8975   -6.0456   32.2726 H   0  0  0  0  0  0  0  0  0  0  0  0
   -1.5231   -5.6161   32.7745 H   0  0  0  0  0  0  0  0  0  0  0  0
    0.1175   -4.3285   30.9251 H   0  0  0  0  0  0  0  0  0  0  0  0
   -1.9944   -3.2479   32.5087 H   0  0  0  0  0  0  0  0  0  0  0  0
   -0.8341   -2.0143   30.9698 H   0  0  0  0  0  0  0  0  0  0  0  0
    0.3328   -0.4054   32.4013 H   0  0  0  0  0  0  0  0  0  0  0  0
   -1.2982   -0.8277   32.9233 H   0  0  0  0  0  0  0  0  0  0  0  0
    0.3947   -0.9554   34.8124 H   0  0  0  0  0  0  0  0  0  0  0  0
    2.1465   -2.1036   32.9701 H   0  0  0  0  0  0  0  0  0  0  0  0
    2.2641   -2.3843   34.7058 H   0  0  0  0  0  0  0  0  0  0  0  0
    1.6238   -4.3264   32.6840 H   0  0  0  0  0  0  0  0  0  0  0  0
    2.8299   -4.7140   34.7068 H   0  0  0  0  0  0  0  0  0  0  0  0
    1.5421   -4.2206   35.7131 H   0  0  0  0  0  0  0  0  0  0  0  0
    1.5164   -7.7269   33.6765 H   0  0  0  0  0  0  0  0  0  0  0  0
    2.7779   -8.6951   35.2622 H   0  0  0  0  0  0  0  0  0  0  0  0
    3.9727   -6.1792   36.0002 H   0  0  0  0  0  0  0  0  0  0  0  0
    2.6141   -8.4321   38.8130 H   0  0  0  0  0  0  0  0  0  0  0  0
    4.6728   -9.8536   39.7957 H   0  0  0  0  0  0  0  0  0  0  0  0
    6.6972   -9.6208   37.9890 H   0  0  0  0  0  0  0  0  0  0  0  0
    5.8517   -8.1524   36.1367 H   0  0  0  0  0  0  0  0  0  0  0  0
    2.2218   -5.2449   37.8138 H   0  0  0  0  0  0  0  0  0  0  0  0
    1.3330   -6.6723   38.3579 H   0  0  0  0  0  0  0  0  0  0  0  0
   -1.1331   -6.8079   37.1031 H   0  0  0  0  0  0  0  0  0  0  0  0
   -1.4295   -5.3770   36.1082 H   0  0  0  0  0  0  0  0  0  0  0  0
   -1.6754   -2.5987   34.6134 H   0  0  0  0  0  0  0  0  0  0  0  0
   -0.3554   -3.1792   35.6041 H   0  0  0  0  0  0  0  0  0  0  0  0
  1  2  1  0
  2  3  1  0
  3  4  1  0
  4  5  1  0
  5  6  1  0
  6  7  1  0
  7  8  1  0
  8  9  1  0
  9 10  1  0
 10 11  1  0
 11 12  1  0
 12 13  1  0
 13 14  1  0
 14 15  1  0
 15 16  1  0
 16 17  1  0
 17 18  1  0
 18 19  1  0
 19 20  1  0
 20 21  1  0
 21 22  2  0
 22 23  1  0
 23 24  2  0
 24 25  1  0
 20 26  1  0
 26 27  1  0
 27 28  1  0
 28 29  1  0
 29 30  1  0
 30 31  1  0
 15 32  1  0
 32 33  1  0
 30  2  1  0
  7  3  1  0
 32 10  1  0
 33 13  1  0
 26 17  1  0
 30 17  1  0
 25 21  1  0
  1 34  1  0
  4 35  1  0
  4 36  1  0
  5 37  1  0
  5 38  1  0
  6 39  1  0
  6 40  1  0
  7 41  1  0
  8 42  1  0
  9 43  1  0
 10 44  1  0
 11 45  1  0
 12 46  1  0
 12 47  1  0
 13 48  1  0
 14 49  1  0
 14 50  1  0
 15 51  1  0
 16 52  1  0
 16 53  1  0
 18 54  1  0
 19 55  1  0
 20 56  1  0
 22 57  1  0
 23 58  1  0
 24 59  1  0
 25 60  1  0
 27 61  1  0
 27 62  1  0
 29 63  1  0
 29 64  1  0
 33 65  1  0
 33 66  1  0
M  END
>  <Energy>  (647) 
77.896678433973335

>  <compound_id>  (647) 
4265

>  <target_id>  (647) 
1

>  <reference_id>  (647) 
141

>  <inspiration_ids>  (647) 
[149, 141]

>  <energy_score>  (647) 
-112.40367029485407

>  <distance_score>  (647) 
2.839498914883526

>  <path>  (647) 
/opt/xchem-fragalysis-2/maxwin/BulkDock/SCRATCH/505735/C4265-P141/C4265-P141.minimised.mol

>  <scratch_subdir>  (647) 
/opt/xchem-fragalysis-2/maxwin/BulkDock/SCRATCH/505735/C4265-P141

>  <fragmenstein_runtime>  (647) 
7.927262783050537

>  <fragmenstein_outcome>  (647) 
too moved

>  <fragmenstein_mode>  (647) 
expansion

>  <fragmenstein_error>  (647) 


$$$$
C4266-P149
     RDKit          3D

 42 46  0  0  0  0  0  0  0  0999 V2000
    2.1079   -1.4716   29.4265 O   0  0  0  0  0  0  0  0  0  0  0  0
    0.7696   -2.0128   29.3204 S   0  0  0  0  0  0  0  0  0  0  0  0
    0.5166   -3.2128   28.5580 O   0  0  0  0  0  0  0  0  0  0  0  0
    0.2904   -2.3507   30.9128 N   0  0  0  0  0  0  0  0  0  0  0  0
    1.2209   -3.3050   31.5437 C   0  0  0  0  0  0  0  0  0  0  0  0
    0.4778   -4.5424   31.9474 C   0  0  0  0  0  0  0  0  0  0  0  0
    0.2671   -4.7353   33.3779 C   0  0  0  0  0  0  0  0  0  0  0  0
   -0.3271   -5.8589   33.8228 C   0  0  0  0  0  0  0  0  0  0  0  0
   -0.3918   -6.1914   35.5209 S   0  0  0  0  0  0  0  0  0  0  0  0
    1.1440   -7.0229   35.5887 C   0  0  0  0  0  0  0  0  0  0  0  0
    1.7700   -7.5363   34.5433 N   0  0  0  0  0  0  0  0  0  0  0  0
    2.9447   -8.0724   35.0089 N   0  0  0  0  0  0  0  0  0  0  0  0
    2.9676   -7.8476   36.3114 C   0  0  0  0  0  0  0  0  0  0  0  0
    4.0123   -8.2843   37.1706 C   0  0  0  0  0  0  0  0  0  0  0  0
    4.1454   -8.1586   38.5381 C   0  0  0  0  0  0  0  0  0  0  0  0
    5.3538   -8.7973   38.9080 C   0  0  0  0  0  0  0  0  0  0  0  0
    5.9252   -9.2936   37.7576 C   0  0  0  0  0  0  0  0  0  0  0  0
    5.1061   -8.9733   36.7068 N   0  0  0  0  0  0  0  0  0  0  0  0
    1.8554   -7.1739   36.7426 O   0  0  0  0  0  0  0  0  0  0  0  0
   -0.7773   -6.7921   32.8835 N   0  0  0  0  0  0  0  0  0  0  0  0
   -1.4646   -7.9673   33.0060 C   0  0  0  0  0  0  0  0  0  0  0  0
   -1.6608   -8.5076   31.8234 N   0  0  0  0  0  0  0  0  0  0  0  0
   -1.0905   -7.6857   30.8854 N   0  0  0  0  0  0  0  0  0  0  0  0
   -0.5726   -6.6562   31.5193 C   0  0  0  0  0  0  0  0  0  0  0  0
    0.0993   -5.4926   31.0634 C   0  0  0  0  0  0  0  0  0  0  0  0
   -0.2409   -0.7510   28.6725 C   0  0  0  0  0  0  0  0  0  0  0  0
   -1.3558   -0.7036   27.8648 C   0  0  0  0  0  0  0  0  0  0  0  0
   -1.6484    0.6440   27.5166 C   0  0  0  0  0  0  0  0  0  0  0  0
   -0.9159    1.5880   28.1010 N   0  0  0  0  0  0  0  0  0  0  0  0
    0.2158    0.8472   29.0506 S   0  0  0  0  0  0  0  0  0  0  0  0
    0.2057   -1.4858   31.4461 H   0  0  0  0  0  0  0  0  0  0  0  0
    2.0492   -3.5973   30.8865 H   0  0  0  0  0  0  0  0  0  0  0  0
    1.6932   -2.8103   32.4009 H   0  0  0  0  0  0  0  0  0  0  0  0
    0.6520   -3.9874   34.0667 H   0  0  0  0  0  0  0  0  0  0  0  0
    3.4419   -7.6724   39.2031 H   0  0  0  0  0  0  0  0  0  0  0  0
    5.7605   -8.8901   39.9075 H   0  0  0  0  0  0  0  0  0  0  0  0
    6.8420   -9.8454   37.5972 H   0  0  0  0  0  0  0  0  0  0  0  0
    5.2689   -9.2155   35.7367 H   0  0  0  0  0  0  0  0  0  0  0  0
   -1.7985   -8.3702   33.9507 H   0  0  0  0  0  0  0  0  0  0  0  0
    0.2674   -5.3810   29.9963 H   0  0  0  0  0  0  0  0  0  0  0  0
   -1.8679   -1.5750   27.4775 H   0  0  0  0  0  0  0  0  0  0  0  0
   -2.4208    0.9730   26.8322 H   0  0  0  0  0  0  0  0  0  0  0  0
  1  2  2  0
  2  3  2  0
  2  4  1  0
  4  5  1  0
  5  6  1  0
  6  7  1  0
  7  8  2  0
  8  9  1  0
  9 10  1  0
 10 11  2  0
 11 12  1  0
 12 13  2  0
 13 14  1  0
 14 15  2  0
 15 16  1  0
 16 17  2  0
 17 18  1  0
 13 19  1  0
  8 20  1  0
 20 21  1  0
 21 22  2  0
 22 23  1  0
 23 24  2  0
 24 25  1  0
  2 26  1  0
 26 27  2  0
 27 28  1  0
 28 29  2  0
 29 30  1  0
 25  6  2  0
 30 26  1  0
 19 10  1  0
 24 20  1  0
 18 14  1  0
  4 31  1  0
  5 32  1  0
  5 33  1  0
  7 34  1  0
 15 35  1  0
 16 36  1  0
 17 37  1  0
 18 38  1  0
 21 39  1  0
 25 40  1  0
 27 41  1  0
 28 42  1  0
M  END
>  <Energy>  (648) 
-49.242519054784296

>  <compound_id>  (648) 
4266

>  <target_id>  (648) 
1

>  <reference_id>  (648) 
149

>  <inspiration_ids>  (648) 
[149, 142]

>  <energy_score>  (648) 
-80.33153465188757

>  <distance_score>  (648) 
0.7365350892821305

>  <path>  (648) 
/opt/xchem-fragalysis-2/maxwin/BulkDock/SCRATCH/505735/C4266-P149/C4266-P149.minimised.mol

>  <scratch_subdir>  (648) 
/opt/xchem-fragalysis-2/maxwin/BulkDock/SCRATCH/505735/C4266-P149

>  <fragmenstein_runtime>  (648) 
2.3332929611206055

>  <fragmenstein_outcome>  (648) 
acceptable

>  <fragmenstein_mode>  (648) 
expansion

>  <fragmenstein_error>  (648) 


$$$$
C4266-P142
     RDKit          3D

 42 46  0  0  0  0  0  0  0  0999 V2000
    2.0935   -1.2708   29.4327 O   0  0  0  0  0  0  0  0  0  0  0  0
    0.8039   -1.9014   29.2523 S   0  0  0  0  0  0  0  0  0  0  0  0
    0.6720   -3.0903   28.4419 O   0  0  0  0  0  0  0  0  0  0  0  0
    0.2793   -2.3092   30.8099 N   0  0  0  0  0  0  0  0  0  0  0  0
    1.2330   -3.2211   31.4633 C   0  0  0  0  0  0  0  0  0  0  0  0
    0.5171   -4.4718   31.8650 C   0  0  0  0  0  0  0  0  0  0  0  0
    0.3513   -4.6944   33.2967 C   0  0  0  0  0  0  0  0  0  0  0  0
   -0.2449   -5.8194   33.7333 C   0  0  0  0  0  0  0  0  0  0  0  0
   -0.3233   -6.1608   35.4299 S   0  0  0  0  0  0  0  0  0  0  0  0
    1.2285   -6.9526   35.5337 C   0  0  0  0  0  0  0  0  0  0  0  0
    1.9002   -7.4410   34.5059 N   0  0  0  0  0  0  0  0  0  0  0  0
    3.0647   -7.9697   35.0063 N   0  0  0  0  0  0  0  0  0  0  0  0
    3.0399   -7.7571   36.3105 C   0  0  0  0  0  0  0  0  0  0  0  0
    4.0547   -8.2034   37.2000 C   0  0  0  0  0  0  0  0  0  0  0  0
    4.1354   -8.1059   38.5737 C   0  0  0  0  0  0  0  0  0  0  0  0
    5.3281   -8.7545   38.9761 C   0  0  0  0  0  0  0  0  0  0  0  0
    5.9429   -9.2279   37.8385 C   0  0  0  0  0  0  0  0  0  0  0  0
    5.1663   -8.8822   36.7641 N   0  0  0  0  0  0  0  0  0  0  0  0
    1.9037   -7.1054   36.7101 O   0  0  0  0  0  0  0  0  0  0  0  0
   -0.7249   -6.7258   32.7829 N   0  0  0  0  0  0  0  0  0  0  0  0
   -1.4209   -7.8929   32.8970 C   0  0  0  0  0  0  0  0  0  0  0  0
   -1.6624   -8.4049   31.7110 N   0  0  0  0  0  0  0  0  0  0  0  0
   -1.1183   -7.5675   30.7741 N   0  0  0  0  0  0  0  0  0  0  0  0
   -0.5679   -6.5598   31.4159 C   0  0  0  0  0  0  0  0  0  0  0  0
    0.0949   -5.3907   30.9680 C   0  0  0  0  0  0  0  0  0  0  0  0
   -0.2779   -0.7030   28.5977 C   0  0  0  0  0  0  0  0  0  0  0  0
   -1.4283   -0.7344   27.8398 C   0  0  0  0  0  0  0  0  0  0  0  0
   -1.7999    0.5864   27.4641 C   0  0  0  0  0  0  0  0  0  0  0  0
   -1.0908    1.5817   27.9898 N   0  0  0  0  0  0  0  0  0  0  0  0
    0.1207    0.9253   28.9030 S   0  0  0  0  0  0  0  0  0  0  0  0
    0.1049   -1.4704   31.3622 H   0  0  0  0  0  0  0  0  0  0  0  0
    2.0765   -3.4977   30.8188 H   0  0  0  0  0  0  0  0  0  0  0  0
    1.6755   -2.7010   32.3213 H   0  0  0  0  0  0  0  0  0  0  0  0
    0.7501   -3.9587   33.9903 H   0  0  0  0  0  0  0  0  0  0  0  0
    3.4060   -7.6344   39.2212 H   0  0  0  0  0  0  0  0  0  0  0  0
    5.6954   -8.8700   39.9884 H   0  0  0  0  0  0  0  0  0  0  0  0
    6.8641   -9.7789   37.7031 H   0  0  0  0  0  0  0  0  0  0  0  0
    5.3666   -9.1034   35.7964 H   0  0  0  0  0  0  0  0  0  0  0  0
   -1.7378   -8.3002   33.8431 H   0  0  0  0  0  0  0  0  0  0  0  0
    0.2199   -5.2476   29.8992 H   0  0  0  0  0  0  0  0  0  0  0  0
   -1.9159   -1.6405   27.5034 H   0  0  0  0  0  0  0  0  0  0  0  0
   -2.6152    0.8554   26.8033 H   0  0  0  0  0  0  0  0  0  0  0  0
  1  2  2  0
  2  3  2  0
  2  4  1  0
  4  5  1  0
  5  6  1  0
  6  7  1  0
  7  8  2  0
  8  9  1  0
  9 10  1  0
 10 11  2  0
 11 12  1  0
 12 13  2  0
 13 14  1  0
 14 15  2  0
 15 16  1  0
 16 17  2  0
 17 18  1  0
 13 19  1  0
  8 20  1  0
 20 21  1  0
 21 22  2  0
 22 23  1  0
 23 24  2  0
 24 25  1  0
  2 26  1  0
 26 27  2  0
 27 28  1  0
 28 29  2  0
 29 30  1  0
 25  6  2  0
 30 26  1  0
 19 10  1  0
 24 20  1  0
 18 14  1  0
  4 31  1  0
  5 32  1  0
  5 33  1  0
  7 34  1  0
 15 35  1  0
 16 36  1  0
 17 37  1  0
 18 38  1  0
 21 39  1  0
 25 40  1  0
 27 41  1  0
 28 42  1  0
M  END
>  <Energy>  (649) 
-50.214497682308483

>  <compound_id>  (649) 
4266

>  <target_id>  (649) 
1

>  <reference_id>  (649) 
142

>  <inspiration_ids>  (649) 
[149, 142]

>  <energy_score>  (649) 
-81.30351327941298

>  <distance_score>  (649) 
0.7563067246042491

>  <path>  (649) 
/opt/xchem-fragalysis-2/maxwin/BulkDock/SCRATCH/505735/C4266-P142/C4266-P142.minimised.mol

>  <scratch_subdir>  (649) 
/opt/xchem-fragalysis-2/maxwin/BulkDock/SCRATCH/505735/C4266-P142

>  <fragmenstein_runtime>  (649) 
2.3935625553131104

>  <fragmenstein_outcome>  (649) 
acceptable

>  <fragmenstein_mode>  (649) 
expansion

>  <fragmenstein_error>  (649) 


$$$$
C4269-P149
     RDKit          3D

 47 51  0  0  0  0  0  0  0  0999 V2000
    1.5546   -0.2948   30.6518 O   0  0  0  0  0  0  0  0  0  0  0  0
    1.1817   -0.8271   29.3567 S   0  0  0  0  0  0  0  0  0  0  0  0
    2.1852   -1.1800   28.3772 O   0  0  0  0  0  0  0  0  0  0  0  0
    0.3015   -2.2699   29.6860 N   0  0  0  0  0  0  0  0  0  0  0  0
    1.2319   -3.3249   30.1638 C   0  0  0  0  0  0  0  0  0  0  0  0
    0.5445   -4.4055   31.0009 C   0  0  0  0  0  0  0  0  0  0  0  0
    0.5586   -4.3349   32.4757 C   0  0  0  0  0  0  0  0  0  0  0  0
    0.0624   -5.3533   33.2238 C   0  0  0  0  0  0  0  0  0  0  0  0
    0.1191   -5.3132   34.9633 S   0  0  0  0  0  0  0  0  0  0  0  0
    1.3987   -6.4794   35.1994 C   0  0  0  0  0  0  0  0  0  0  0  0
    1.9015   -7.2566   34.2581 N   0  0  0  0  0  0  0  0  0  0  0  0
    2.8991   -7.9990   34.8448 N   0  0  0  0  0  0  0  0  0  0  0  0
    2.9488   -7.6287   36.1128 C   0  0  0  0  0  0  0  0  0  0  0  0
    3.8828   -8.1504   37.0522 C   0  0  0  0  0  0  0  0  0  0  0  0
    3.9741   -7.9625   38.4165 C   0  0  0  0  0  0  0  0  0  0  0  0
    5.0816   -8.7159   38.8789 C   0  0  0  0  0  0  0  0  0  0  0  0
    5.6392   -9.3396   37.7854 C   0  0  0  0  0  0  0  0  0  0  0  0
    4.9071   -8.9886   36.6811 N   0  0  0  0  0  0  0  0  0  0  0  0
    2.0092   -6.6742   36.4077 O   0  0  0  0  0  0  0  0  0  0  0  0
   -0.5004   -6.4561   32.5605 N   0  0  0  0  0  0  0  0  0  0  0  0
   -1.1441   -7.5901   32.9936 C   0  0  0  0  0  0  0  0  0  0  0  0
   -1.5102   -8.3275   31.9665 N   0  0  0  0  0  0  0  0  0  0  0  0
   -1.0903   -7.6960   30.8250 N   0  0  0  0  0  0  0  0  0  0  0  0
   -0.4997   -6.5766   31.1816 C   0  0  0  0  0  0  0  0  0  0  0  0
    0.0569   -5.5188   30.4169 C   0  0  0  0  0  0  0  0  0  0  0  0
    0.0560    0.3148   28.5994 C   0  0  0  0  0  0  0  0  0  0  0  0
    0.1499    1.6778   28.9077 C   0  0  0  0  0  0  0  0  0  0  0  0
   -0.7629    2.5559   28.3481 C   0  0  0  0  0  0  0  0  0  0  0  0
   -1.7171    2.0496   27.4802 C   0  0  0  0  0  0  0  0  0  0  0  0
   -2.7118    2.8322   27.0204 O   0  0  0  0  0  0  0  0  0  0  0  0
   -1.7634    0.7263   27.1056 C   0  0  0  0  0  0  0  0  0  0  0  0
   -0.9010   -0.1583   27.7080 C   0  0  0  0  0  0  0  0  0  0  0  0
   -0.2411   -2.5680   28.8731 H   0  0  0  0  0  0  0  0  0  0  0  0
    1.7005   -3.7890   29.2861 H   0  0  0  0  0  0  0  0  0  0  0  0
    2.0420   -2.8984   30.7676 H   0  0  0  0  0  0  0  0  0  0  0  0
    0.9943   -3.4468   32.9291 H   0  0  0  0  0  0  0  0  0  0  0  0
    3.3091   -7.3563   39.0196 H   0  0  0  0  0  0  0  0  0  0  0  0
    5.4318   -8.7958   39.9006 H   0  0  0  0  0  0  0  0  0  0  0  0
    6.4907  -10.0014   37.6985 H   0  0  0  0  0  0  0  0  0  0  0  0
    5.0842   -9.2999   35.7337 H   0  0  0  0  0  0  0  0  0  0  0  0
   -1.3194   -7.8324   34.0330 H   0  0  0  0  0  0  0  0  0  0  0  0
    0.0394   -5.6088   29.3430 H   0  0  0  0  0  0  0  0  0  0  0  0
    0.9068    2.0445   29.5963 H   0  0  0  0  0  0  0  0  0  0  0  0
   -0.7490    3.6124   28.6002 H   0  0  0  0  0  0  0  0  0  0  0  0
   -3.2556    3.0727   27.8057 H   0  0  0  0  0  0  0  0  0  0  0  0
   -2.4914    0.3812   26.3833 H   0  0  0  0  0  0  0  0  0  0  0  0
   -0.9792   -1.2077   27.4551 H   0  0  0  0  0  0  0  0  0  0  0  0
  1  2  2  0
  2  3  2  0
  2  4  1  0
  4  5  1  0
  5  6  1  0
  6  7  1  0
  7  8  2  0
  8  9  1  0
  9 10  1  0
 10 11  2  0
 11 12  1  0
 12 13  2  0
 13 14  1  0
 14 15  2  0
 15 16  1  0
 16 17  2  0
 17 18  1  0
 13 19  1  0
  8 20  1  0
 20 21  1  0
 21 22  2  0
 22 23  1  0
 23 24  2  0
 24 25  1  0
  2 26  1  0
 26 27  2  0
 27 28  1  0
 28 29  2  0
 29 30  1  0
 29 31  1  0
 31 32  2  0
 25  6  2  0
 32 26  1  0
 19 10  1  0
 24 20  1  0
 18 14  1  0
  4 33  1  0
  5 34  1  0
  5 35  1  0
  7 36  1  0
 15 37  1  0
 16 38  1  0
 17 39  1  0
 18 40  1  0
 21 41  1  0
 25 42  1  0
 27 43  1  0
 28 44  1  0
 30 45  1  0
 31 46  1  0
 32 47  1  0
M  END
>  <Energy>  (650) 
-20.165112209615202

>  <compound_id>  (650) 
4269

>  <target_id>  (650) 
1

>  <reference_id>  (650) 
149

>  <inspiration_ids>  (650) 
[149, 147]

>  <energy_score>  (650) 
-38.83177948436071

>  <distance_score>  (650) 
1.785114627713121

>  <path>  (650) 
/opt/xchem-fragalysis-2/maxwin/BulkDock/SCRATCH/505735/C4269-P149/C4269-P149.minimised.mol

>  <scratch_subdir>  (650) 
/opt/xchem-fragalysis-2/maxwin/BulkDock/SCRATCH/505735/C4269-P149

>  <fragmenstein_runtime>  (650) 
5.618192911148071

>  <fragmenstein_outcome>  (650) 
too moved

>  <fragmenstein_mode>  (650) 
expansion

>  <fragmenstein_error>  (650) 


$$$$
C4269-P147
     RDKit          3D

 47 51  0  0  0  0  0  0  0  0999 V2000
    1.8030   -1.7073   28.2394 O   0  0  0  0  0  0  0  0  0  0  0  0
    0.3982   -1.7721   28.5802 S   0  0  0  0  0  0  0  0  0  0  0  0
   -0.4700   -2.8352   28.1364 O   0  0  0  0  0  0  0  0  0  0  0  0
    0.3113   -2.0231   30.2483 N   0  0  0  0  0  0  0  0  0  0  0  0
    1.2566   -3.0964   30.6620 C   0  0  0  0  0  0  0  0  0  0  0  0
    0.5502   -4.2675   31.3311 C   0  0  0  0  0  0  0  0  0  0  0  0
    0.5185   -4.3287   32.7983 C   0  0  0  0  0  0  0  0  0  0  0  0
   -0.0034   -5.4063   33.4277 C   0  0  0  0  0  0  0  0  0  0  0  0
    0.0019   -5.5156   35.1618 S   0  0  0  0  0  0  0  0  0  0  0  0
    1.3844   -6.5662   35.3304 C   0  0  0  0  0  0  0  0  0  0  0  0
    1.9142   -7.2896   34.3619 N   0  0  0  0  0  0  0  0  0  0  0  0
    2.9809   -7.9645   34.9077 N   0  0  0  0  0  0  0  0  0  0  0  0
    3.0401   -7.6096   36.1797 C   0  0  0  0  0  0  0  0  0  0  0  0
    4.0085   -8.1081   37.0948 C   0  0  0  0  0  0  0  0  0  0  0  0
    4.1125   -7.9333   38.4597 C   0  0  0  0  0  0  0  0  0  0  0  0
    5.2384   -8.6717   38.8999 C   0  0  0  0  0  0  0  0  0  0  0  0
    5.7938   -9.2733   37.7931 C   0  0  0  0  0  0  0  0  0  0  0  0
    5.0430   -8.9234   36.7018 N   0  0  0  0  0  0  0  0  0  0  0  0
    2.0440   -6.7303   36.5158 O   0  0  0  0  0  0  0  0  0  0  0  0
   -0.5446   -6.4371   32.6458 N   0  0  0  0  0  0  0  0  0  0  0  0
   -1.1809   -7.6084   32.9637 C   0  0  0  0  0  0  0  0  0  0  0  0
   -1.5317   -8.2512   31.8719 N   0  0  0  0  0  0  0  0  0  0  0  0
   -1.1097   -7.5110   30.7962 N   0  0  0  0  0  0  0  0  0  0  0  0
   -0.5256   -6.4256   31.2595 C   0  0  0  0  0  0  0  0  0  0  0  0
    0.0609   -5.3037   30.6117 C   0  0  0  0  0  0  0  0  0  0  0  0
   -0.3258   -0.1829   28.2891 C   0  0  0  0  0  0  0  0  0  0  0  0
    0.3539    0.9571   28.7297 C   0  0  0  0  0  0  0  0  0  0  0  0
   -0.2017    2.1987   28.4926 C   0  0  0  0  0  0  0  0  0  0  0  0
   -1.4109    2.2661   27.8178 C   0  0  0  0  0  0  0  0  0  0  0  0
   -1.9950    3.4742   27.7129 O   0  0  0  0  0  0  0  0  0  0  0  0
   -2.0480    1.1575   27.2965 C   0  0  0  0  0  0  0  0  0  0  0  0
   -1.5100   -0.0875   27.5538 C   0  0  0  0  0  0  0  0  0  0  0  0
   -0.6534   -2.3004   30.4385 H   0  0  0  0  0  0  0  0  0  0  0  0
    1.8503   -3.4944   29.8308 H   0  0  0  0  0  0  0  0  0  0  0  0
    1.9876   -2.6470   31.3452 H   0  0  0  0  0  0  0  0  0  0  0  0
    0.9437   -3.4936   33.3506 H   0  0  0  0  0  0  0  0  0  0  0  0
    3.4407   -7.3529   39.0804 H   0  0  0  0  0  0  0  0  0  0  0  0
    5.5989   -8.7613   39.9172 H   0  0  0  0  0  0  0  0  0  0  0  0
    6.6535   -9.9228   37.6909 H   0  0  0  0  0  0  0  0  0  0  0  0
    5.2123   -9.2283   35.7512 H   0  0  0  0  0  0  0  0  0  0  0  0
   -1.3649   -7.9390   33.9753 H   0  0  0  0  0  0  0  0  0  0  0  0
    0.0868   -5.2954   29.5266 H   0  0  0  0  0  0  0  0  0  0  0  0
    1.2988    0.8711   29.2593 H   0  0  0  0  0  0  0  0  0  0  0  0
    0.2741    3.1066   28.8516 H   0  0  0  0  0  0  0  0  0  0  0  0
   -2.9620    3.3699   27.8165 H   0  0  0  0  0  0  0  0  0  0  0  0
   -2.9577    1.2625   26.7157 H   0  0  0  0  0  0  0  0  0  0  0  0
   -1.9997   -0.9797   27.1685 H   0  0  0  0  0  0  0  0  0  0  0  0
  1  2  2  0
  2  3  2  0
  2  4  1  0
  4  5  1  0
  5  6  1  0
  6  7  1  0
  7  8  2  0
  8  9  1  0
  9 10  1  0
 10 11  2  0
 11 12  1  0
 12 13  2  0
 13 14  1  0
 14 15  2  0
 15 16  1  0
 16 17  2  0
 17 18  1  0
 13 19  1  0
  8 20  1  0
 20 21  1  0
 21 22  2  0
 22 23  1  0
 23 24  2  0
 24 25  1  0
  2 26  1  0
 26 27  2  0
 27 28  1  0
 28 29  2  0
 29 30  1  0
 29 31  1  0
 31 32  2  0
 25  6  2  0
 32 26  1  0
 19 10  1  0
 24 20  1  0
 18 14  1  0
  4 33  1  0
  5 34  1  0
  5 35  1  0
  7 36  1  0
 15 37  1  0
 16 38  1  0
 17 39  1  0
 18 40  1  0
 21 41  1  0
 25 42  1  0
 27 43  1  0
 28 44  1  0
 30 45  1  0
 31 46  1  0
 32 47  1  0
M  END
>  <Energy>  (651) 
-23.099265102862212

>  <compound_id>  (651) 
4269

>  <target_id>  (651) 
1

>  <reference_id>  (651) 
147

>  <inspiration_ids>  (651) 
[149, 147]

>  <energy_score>  (651) 
-41.76593237760923

>  <distance_score>  (651) 
1.8724525912743077

>  <path>  (651) 
/opt/xchem-fragalysis-2/maxwin/BulkDock/SCRATCH/505735/C4269-P147/C4269-P147.minimised.mol

>  <scratch_subdir>  (651) 
/opt/xchem-fragalysis-2/maxwin/BulkDock/SCRATCH/505735/C4269-P147

>  <fragmenstein_runtime>  (651) 
5.364474534988403

>  <fragmenstein_outcome>  (651) 
too moved

>  <fragmenstein_mode>  (651) 
expansion

>  <fragmenstein_error>  (651) 


$$$$
C4276-P149
     RDKit          3D

 49 53  0  0  0  0  0  0  0  0999 V2000
   -1.0905   -2.4360   32.2491 O   0  0  0  0  0  0  0  0  0  0  0  0
    0.1510   -1.7015   32.3031 S   0  0  0  0  0  0  0  0  0  0  0  0
    0.9404   -1.6104   33.5051 O   0  0  0  0  0  0  0  0  0  0  0  0
    1.1059   -2.3152   31.0746 N   0  0  0  0  0  0  0  0  0  0  0  0
    1.9100   -3.5081   31.3718 C   0  0  0  0  0  0  0  0  0  0  0  0
    1.0332   -4.6768   31.7766 C   0  0  0  0  0  0  0  0  0  0  0  0
    0.8016   -4.8525   33.2127 C   0  0  0  0  0  0  0  0  0  0  0  0
    0.0023   -5.8399   33.6642 C   0  0  0  0  0  0  0  0  0  0  0  0
   -0.1788   -6.1100   35.3674 S   0  0  0  0  0  0  0  0  0  0  0  0
    1.2950   -7.0273   35.5330 C   0  0  0  0  0  0  0  0  0  0  0  0
    1.9129   -7.6295   34.5311 N   0  0  0  0  0  0  0  0  0  0  0  0
    3.0551   -8.1830   35.0460 N   0  0  0  0  0  0  0  0  0  0  0  0
    3.0628   -7.8901   36.3352 C   0  0  0  0  0  0  0  0  0  0  0  0
    4.0767   -8.3213   37.2316 C   0  0  0  0  0  0  0  0  0  0  0  0
    4.1938   -8.1388   38.5936 C   0  0  0  0  0  0  0  0  0  0  0  0
    5.3761   -8.7981   39.0091 C   0  0  0  0  0  0  0  0  0  0  0  0
    5.9480   -9.3622   37.8905 C   0  0  0  0  0  0  0  0  0  0  0  0
    5.1538   -9.0641   36.8149 N   0  0  0  0  0  0  0  0  0  0  0  0
    1.9725   -7.1508   36.7095 O   0  0  0  0  0  0  0  0  0  0  0  0
   -0.5688   -6.7112   32.7332 N   0  0  0  0  0  0  0  0  0  0  0  0
   -1.3757   -7.8104   32.8656 C   0  0  0  0  0  0  0  0  0  0  0  0
   -1.6242   -8.3374   31.6866 N   0  0  0  0  0  0  0  0  0  0  0  0
   -0.9686   -7.5859   30.7420 N   0  0  0  0  0  0  0  0  0  0  0  0
   -0.3404   -6.6123   31.3674 C   0  0  0  0  0  0  0  0  0  0  0  0
    0.4818   -5.5467   30.8997 C   0  0  0  0  0  0  0  0  0  0  0  0
   -0.1087   -0.1915   31.6916 N   0  0  0  0  0  0  0  0  0  0  0  0
    0.8505    0.9069   31.9300 C   0  0  0  0  0  0  0  0  0  0  0  0
    1.4355    1.4309   30.6227 C   0  0  0  0  0  0  0  0  0  0  0  0
    0.3920    1.7984   29.7154 O   0  0  0  0  0  0  0  0  0  0  0  0
   -0.3785    0.6469   29.3560 C   0  0  0  0  0  0  0  0  0  0  0  0
   -1.0487   -0.0006   30.5675 C   0  0  0  0  0  0  0  0  0  0  0  0
    0.5107   -2.4670   30.2600 H   0  0  0  0  0  0  0  0  0  0  0  0
    2.6688   -3.2805   32.1286 H   0  0  0  0  0  0  0  0  0  0  0  0
    2.4620   -3.7685   30.4601 H   0  0  0  0  0  0  0  0  0  0  0  0
    1.3016   -4.1746   33.9022 H   0  0  0  0  0  0  0  0  0  0  0  0
    3.4973   -7.6006   39.2250 H   0  0  0  0  0  0  0  0  0  0  0  0
    5.7655   -8.8586   40.0179 H   0  0  0  0  0  0  0  0  0  0  0  0
    6.8491   -9.9485   37.7691 H   0  0  0  0  0  0  0  0  0  0  0  0
    5.3212   -9.3531   35.8586 H   0  0  0  0  0  0  0  0  0  0  0  0
   -1.7393   -8.1829   33.8134 H   0  0  0  0  0  0  0  0  0  0  0  0
    0.6246   -5.4437   29.8300 H   0  0  0  0  0  0  0  0  0  0  0  0
    1.6627    0.6041   32.5968 H   0  0  0  0  0  0  0  0  0  0  0  0
    0.2987    1.7097   32.4339 H   0  0  0  0  0  0  0  0  0  0  0  0
    2.0847    0.6850   30.1488 H   0  0  0  0  0  0  0  0  0  0  0  0
    2.0396    2.3229   30.8160 H   0  0  0  0  0  0  0  0  0  0  0  0
    0.2748   -0.0707   28.8447 H   0  0  0  0  0  0  0  0  0  0  0  0
   -1.1406    0.9634   28.6364 H   0  0  0  0  0  0  0  0  0  0  0  0
   -1.4997   -0.9463   30.2510 H   0  0  0  0  0  0  0  0  0  0  0  0
   -1.8681    0.6193   30.9335 H   0  0  0  0  0  0  0  0  0  0  0  0
  1  2  2  0
  2  3  2  0
  2  4  1  0
  4  5  1  0
  5  6  1  0
  6  7  1  0
  7  8  2  0
  8  9  1  0
  9 10  1  0
 10 11  2  0
 11 12  1  0
 12 13  2  0
 13 14  1  0
 14 15  2  0
 15 16  1  0
 16 17  2  0
 17 18  1  0
 13 19  1  0
  8 20  1  0
 20 21  1  0
 21 22  2  0
 22 23  1  0
 23 24  2  0
 24 25  1  0
  2 26  1  0
 26 27  1  0
 27 28  1  0
 28 29  1  0
 29 30  1  0
 30 31  1  0
 25  6  2  0
 31 26  1  0
 19 10  1  0
 24 20  1  0
 18 14  1  0
  4 32  1  0
  5 33  1  0
  5 34  1  0
  7 35  1  0
 15 36  1  0
 16 37  1  0
 17 38  1  0
 18 39  1  0
 21 40  1  0
 25 41  1  0
 27 42  1  0
 27 43  1  0
 28 44  1  0
 28 45  1  0
 30 46  1  0
 30 47  1  0
 31 48  1  0
 31 49  1  0
M  END
>  <Energy>  (652) 
-113.90472444401004

>  <compound_id>  (652) 
4276

>  <target_id>  (652) 
1

>  <reference_id>  (652) 
149

>  <inspiration_ids>  (652) 
[149, 163]

>  <energy_score>  (652) 
-63.485286056343085

>  <distance_score>  (652) 
0.7152699103529717

>  <path>  (652) 
/opt/xchem-fragalysis-2/maxwin/BulkDock/SCRATCH/505735/C4276-P149/C4276-P149.minimised.mol

>  <scratch_subdir>  (652) 
/opt/xchem-fragalysis-2/maxwin/BulkDock/SCRATCH/505735/C4276-P149

>  <fragmenstein_runtime>  (652) 
3.04410982131958

>  <fragmenstein_outcome>  (652) 
acceptable

>  <fragmenstein_mode>  (652) 
expansion

>  <fragmenstein_error>  (652) 


$$$$
C4276-P163
     RDKit          3D

 49 53  0  0  0  0  0  0  0  0999 V2000
   -1.1170   -1.7434   32.0792 O   0  0  0  0  0  0  0  0  0  0  0  0
    0.2924   -1.4486   32.1636 S   0  0  0  0  0  0  0  0  0  0  0  0
    1.0337   -1.5681   33.3938 O   0  0  0  0  0  0  0  0  0  0  0  0
    1.0315   -2.3496   30.9695 N   0  0  0  0  0  0  0  0  0  0  0  0
    1.8613   -3.4892   31.3307 C   0  0  0  0  0  0  0  0  0  0  0  0
    0.9808   -4.6420   31.7436 C   0  0  0  0  0  0  0  0  0  0  0  0
    0.7362   -4.7918   33.1773 C   0  0  0  0  0  0  0  0  0  0  0  0
   -0.0276   -5.8026   33.6351 C   0  0  0  0  0  0  0  0  0  0  0  0
   -0.1936   -6.0700   35.3413 S   0  0  0  0  0  0  0  0  0  0  0  0
    1.3087   -6.9378   35.5190 C   0  0  0  0  0  0  0  0  0  0  0  0
    1.9381   -7.5488   34.5306 N   0  0  0  0  0  0  0  0  0  0  0  0
    3.0797   -8.0895   35.0613 N   0  0  0  0  0  0  0  0  0  0  0  0
    3.0792   -7.7778   36.3460 C   0  0  0  0  0  0  0  0  0  0  0  0
    4.0819   -8.2092   37.2548 C   0  0  0  0  0  0  0  0  0  0  0  0
    4.1737   -8.0411   38.6205 C   0  0  0  0  0  0  0  0  0  0  0  0
    5.3470   -8.7066   39.0517 C   0  0  0  0  0  0  0  0  0  0  0  0
    5.9397   -9.2601   37.9388 C   0  0  0  0  0  0  0  0  0  0  0  0
    5.1671   -8.9487   36.8518 N   0  0  0  0  0  0  0  0  0  0  0  0
    1.9779   -7.0449   36.7028 O   0  0  0  0  0  0  0  0  0  0  0  0
   -0.5840   -6.6857   32.7055 N   0  0  0  0  0  0  0  0  0  0  0  0
   -1.3818   -7.7866   32.8431 C   0  0  0  0  0  0  0  0  0  0  0  0
   -1.6497   -8.3125   31.6686 N   0  0  0  0  0  0  0  0  0  0  0  0
   -1.0075   -7.5596   30.7177 N   0  0  0  0  0  0  0  0  0  0  0  0
   -0.3692   -6.5895   31.3382 C   0  0  0  0  0  0  0  0  0  0  0  0
    0.4517   -5.5276   30.8684 C   0  0  0  0  0  0  0  0  0  0  0  0
    0.5574    0.0846   31.5127 N   0  0  0  0  0  0  0  0  0  0  0  0
    1.9963    0.4980   31.4899 C   0  0  0  0  0  0  0  0  0  0  0  0
    2.1521    1.9115   30.9318 C   0  0  0  0  0  0  0  0  0  0  0  0
    1.5778    1.9991   29.6221 O   0  0  0  0  0  0  0  0  0  0  0  0
    0.1711    1.7547   29.7081 C   0  0  0  0  0  0  0  0  0  0  0  0
   -0.1184    0.3381   30.2008 C   0  0  0  0  0  0  0  0  0  0  0  0
    0.3520   -2.5558   30.2357 H   0  0  0  0  0  0  0  0  0  0  0  0
    2.6020   -3.2257   32.0930 H   0  0  0  0  0  0  0  0  0  0  0  0
    2.4402   -3.7720   30.4426 H   0  0  0  0  0  0  0  0  0  0  0  0
    1.2158   -4.0934   33.8606 H   0  0  0  0  0  0  0  0  0  0  0  0
    3.4636   -7.5144   39.2467 H   0  0  0  0  0  0  0  0  0  0  0  0
    5.7140   -8.7819   40.0679 H   0  0  0  0  0  0  0  0  0  0  0  0
    6.8404   -9.8503   37.8303 H   0  0  0  0  0  0  0  0  0  0  0  0
    5.3529   -9.2327   35.8979 H   0  0  0  0  0  0  0  0  0  0  0  0
   -1.7397   -8.1470   33.7948 H   0  0  0  0  0  0  0  0  0  0  0  0
    0.6164   -5.4441   29.7997 H   0  0  0  0  0  0  0  0  0  0  0  0
    2.5610   -0.1937   30.8544 H   0  0  0  0  0  0  0  0  0  0  0  0
    2.4096    0.4706   32.5030 H   0  0  0  0  0  0  0  0  0  0  0  0
    3.2143    2.1616   30.8458 H   0  0  0  0  0  0  0  0  0  0  0  0
    1.6879    2.6564   31.5894 H   0  0  0  0  0  0  0  0  0  0  0  0
   -0.2643    1.9096   28.7163 H   0  0  0  0  0  0  0  0  0  0  0  0
   -0.2360    2.5029   30.3854 H   0  0  0  0  0  0  0  0  0  0  0  0
    0.2556   -0.3696   29.4532 H   0  0  0  0  0  0  0  0  0  0  0  0
   -1.2004    0.2113   30.3073 H   0  0  0  0  0  0  0  0  0  0  0  0
  1  2  2  0
  2  3  2  0
  2  4  1  0
  4  5  1  0
  5  6  1  0
  6  7  1  0
  7  8  2  0
  8  9  1  0
  9 10  1  0
 10 11  2  0
 11 12  1  0
 12 13  2  0
 13 14  1  0
 14 15  2  0
 15 16  1  0
 16 17  2  0
 17 18  1  0
 13 19  1  0
  8 20  1  0
 20 21  1  0
 21 22  2  0
 22 23  1  0
 23 24  2  0
 24 25  1  0
  2 26  1  0
 26 27  1  0
 27 28  1  0
 28 29  1  0
 29 30  1  0
 30 31  1  0
 25  6  2  0
 31 26  1  0
 19 10  1  0
 24 20  1  0
 18 14  1  0
  4 32  1  0
  5 33  1  0
  5 34  1  0
  7 35  1  0
 15 36  1  0
 16 37  1  0
 17 38  1  0
 18 39  1  0
 21 40  1  0
 25 41  1  0
 27 42  1  0
 27 43  1  0
 28 44  1  0
 28 45  1  0
 30 46  1  0
 30 47  1  0
 31 48  1  0
 31 49  1  0
M  END
>  <Energy>  (653) 
-117.89524379456101

>  <compound_id>  (653) 
4276

>  <target_id>  (653) 
1

>  <reference_id>  (653) 
163

>  <inspiration_ids>  (653) 
[149, 163]

>  <energy_score>  (653) 
-67.47580540689324

>  <distance_score>  (653) 
0.7827629990334439

>  <path>  (653) 
/opt/xchem-fragalysis-2/maxwin/BulkDock/SCRATCH/505735/C4276-P163/C4276-P163.minimised.mol

>  <scratch_subdir>  (653) 
/opt/xchem-fragalysis-2/maxwin/BulkDock/SCRATCH/505735/C4276-P163

>  <fragmenstein_runtime>  (653) 
3.5626704692840576

>  <fragmenstein_outcome>  (653) 
acceptable

>  <fragmenstein_mode>  (653) 
expansion

>  <fragmenstein_error>  (653) 


$$$$
C1627-P149
     RDKit          3D

 60 65  0  0  0  0  0  0  0  0999 V2000
   -1.9570   -1.1810   33.2798 C   0  0  0  0  0  0  0  0  0  0  0  0
   -1.5402   -1.9680   34.5062 C   0  0  0  0  0  0  0  0  0  0  0  0
    0.2222   -2.1392   34.6327 S   0  0  0  0  0  0  0  0  0  0  0  0
    0.7510   -0.8545   35.0375 O   0  0  0  0  0  0  0  0  0  0  0  0
    0.7395   -2.9702   33.4240 N   0  0  0  0  0  0  0  0  0  0  0  0
    0.3512   -4.3730   33.1738 C   0  0  0  0  0  0  0  0  0  0  0  0
    0.5101   -5.3293   34.2330 C   0  0  0  0  0  0  0  0  0  0  0  0
   -0.0983   -6.5255   34.2307 C   0  0  0  0  0  0  0  0  0  0  0  0
    0.1593   -7.4333   35.2581 N   0  0  0  0  0  0  0  0  0  0  0  0
    1.4774   -7.7410   35.3715 C   0  0  0  0  0  0  0  0  0  0  0  0
    2.3549   -7.8111   34.3994 N   0  0  0  0  0  0  0  0  0  0  0  0
    3.5624   -8.1031   34.9414 N   0  0  0  0  0  0  0  0  0  0  0  0
    3.4203   -8.1637   36.2507 C   0  0  0  0  0  0  0  0  0  0  0  0
    4.4445   -8.5421   37.2027 C   0  0  0  0  0  0  0  0  0  0  0  0
    4.2954   -8.3470   38.5802 C   0  0  0  0  0  0  0  0  0  0  0  0
    5.2863   -8.7876   39.4546 C   0  0  0  0  0  0  0  0  0  0  0  0
    6.4246   -9.4200   38.9582 C   0  0  0  0  0  0  0  0  0  0  0  0
    6.5860   -9.6037   37.5891 C   0  0  0  0  0  0  0  0  0  0  0  0
    5.6033   -9.1628   36.7153 C   0  0  0  0  0  0  0  0  0  0  0  0
    2.1038   -7.9429   36.5566 N   0  0  0  0  0  0  0  0  0  0  0  0
   -0.7212   -6.8953   33.0447 N   0  0  0  0  0  0  0  0  0  0  0  0
   -1.4231   -8.0067   32.6944 C   0  0  0  0  0  0  0  0  0  0  0  0
   -1.5589   -8.0609   31.3923 N   0  0  0  0  0  0  0  0  0  0  0  0
   -1.0019   -6.9157   30.8724 N   0  0  0  0  0  0  0  0  0  0  0  0
   -0.6018   -6.1569   31.8745 C   0  0  0  0  0  0  0  0  0  0  0  0
   -0.1103   -4.8107   31.9799 C   0  0  0  0  0  0  0  0  0  0  0  0
    0.5936   -3.0788   36.0161 N   0  0  0  0  0  0  0  0  0  0  0  0
   -0.1755   -3.0445   37.2568 C   0  0  0  0  0  0  0  0  0  0  0  0
    0.1459   -4.2216   38.1847 C   0  0  0  0  0  0  0  0  0  0  0  0
   -0.2654   -5.5283   37.8455 C   0  0  0  0  0  0  0  0  0  0  0  0
    0.0290   -6.6336   38.6584 C   0  0  0  0  0  0  0  0  0  0  0  0
    0.7015   -6.4180   39.8321 C   0  0  0  0  0  0  0  0  0  0  0  0
    1.0752   -5.1531   40.1998 C   0  0  0  0  0  0  0  0  0  0  0  0
    0.8217   -4.0453   39.4036 C   0  0  0  0  0  0  0  0  0  0  0  0
    1.7301   -5.1352   41.3924 O   0  0  0  0  0  0  0  0  0  0  0  0
    1.6836   -6.5323   41.7485 C   0  0  0  0  0  0  0  0  0  0  0  0
    1.0806   -7.3610   40.7305 O   0  0  0  0  0  0  0  0  0  0  0  0
   -1.6372   -1.6783   32.3588 H   0  0  0  0  0  0  0  0  0  0  0  0
   -1.5184   -0.1780   33.2877 H   0  0  0  0  0  0  0  0  0  0  0  0
   -3.0460   -1.0782   33.2470 H   0  0  0  0  0  0  0  0  0  0  0  0
   -1.9546   -2.9726   34.4759 H   0  0  0  0  0  0  0  0  0  0  0  0
   -1.8928   -1.4639   35.4107 H   0  0  0  0  0  0  0  0  0  0  0  0
    1.1987   -5.0801   35.0303 H   0  0  0  0  0  0  0  0  0  0  0  0
   -0.4265   -8.2750   35.2072 H   0  0  0  0  0  0  0  0  0  0  0  0
    3.4213   -7.8545   38.9951 H   0  0  0  0  0  0  0  0  0  0  0  0
    5.1742   -8.6393   40.5257 H   0  0  0  0  0  0  0  0  0  0  0  0
    7.1951   -9.7630   39.6451 H   0  0  0  0  0  0  0  0  0  0  0  0
    7.4794  -10.0877   37.2038 H   0  0  0  0  0  0  0  0  0  0  0  0
    5.7386   -9.3181   35.6457 H   0  0  0  0  0  0  0  0  0  0  0  0
    1.6809   -8.0130   37.4657 H   0  0  0  0  0  0  0  0  0  0  0  0
   -1.7942   -8.7243   33.4029 H   0  0  0  0  0  0  0  0  0  0  0  0
   -0.1875   -4.1481   31.1258 H   0  0  0  0  0  0  0  0  0  0  0  0
    1.5544   -2.8234   36.2248 H   0  0  0  0  0  0  0  0  0  0  0  0
   -1.2494   -3.0938   37.0437 H   0  0  0  0  0  0  0  0  0  0  0  0
   -0.0004   -2.0961   37.7774 H   0  0  0  0  0  0  0  0  0  0  0  0
   -0.8389   -5.6809   36.9351 H   0  0  0  0  0  0  0  0  0  0  0  0
   -0.2608   -7.6343   38.3720 H   0  0  0  0  0  0  0  0  0  0  0  0
    1.1499   -3.0622   39.7279 H   0  0  0  0  0  0  0  0  0  0  0  0
    2.7072   -6.8834   41.9217 H   0  0  0  0  0  0  0  0  0  0  0  0
    1.1110   -6.6418   42.6770 H   0  0  0  0  0  0  0  0  0  0  0  0
  1  2  1  0
  2  3  1  0
  3  4  2  0
  3  5  2  0
  5  6  1  0
  6  7  1  0
  7  8  2  0
  8  9  1  0
  9 10  1  0
 10 11  2  0
 11 12  1  0
 12 13  2  0
 13 14  1  0
 14 15  2  0
 15 16  1  0
 16 17  2  0
 17 18  1  0
 18 19  2  0
 13 20  1  0
  8 21  1  0
 21 22  1  0
 22 23  2  0
 23 24  1  0
 24 25  2  0
 25 26  1  0
  3 27  1  0
 27 28  1  0
 28 29  1  0
 29 30  2  0
 30 31  1  0
 31 32  2  0
 32 33  1  0
 33 34  2  0
 33 35  1  0
 35 36  1  0
 36 37  1  0
 26  6  2  0
 34 29  1  0
 20 10  1  0
 25 21  1  0
 37 32  1  0
 19 14  1  0
  1 38  1  0
  1 39  1  0
  1 40  1  0
  2 41  1  0
  2 42  1  0
  7 43  1  0
  9 44  1  0
 15 45  1  0
 16 46  1  0
 17 47  1  0
 18 48  1  0
 19 49  1  0
 20 50  1  0
 22 51  1  0
 26 52  1  0
 27 53  1  0
 28 54  1  0
 28 55  1  0
 30 56  1  0
 31 57  1  0
 34 58  1  0
 36 59  1  0
 36 60  1  0
M  END
>  <Energy>  (654) 
-32.014640769040277

>  <compound_id>  (654) 
1627

>  <target_id>  (654) 
1

>  <reference_id>  (654) 
149

>  <inspiration_ids>  (654) 
[149, 164]

>  <energy_score>  (654) 
-52.9901039773403

>  <distance_score>  (654) 
1.4349817500788777

>  <path>  (654) 
/opt/xchem-fragalysis-2/maxwin/BulkDock/SCRATCH/505735/C1627-P149/C1627-P149.minimised.mol

>  <scratch_subdir>  (654) 
/opt/xchem-fragalysis-2/maxwin/BulkDock/SCRATCH/505735/C1627-P149

>  <fragmenstein_runtime>  (654) 
12.681315422058105

>  <fragmenstein_outcome>  (654) 
too moved

>  <fragmenstein_mode>  (654) 
expansion

>  <fragmenstein_error>  (654) 


$$$$
C1627-P164
     RDKit          3D

 60 65  0  0  0  0  0  0  0  0999 V2000
    1.9385   -0.8651   32.9755 C   0  0  0  0  0  0  0  0  0  0  0  0
    1.7652   -1.7104   34.2228 C   0  0  0  0  0  0  0  0  0  0  0  0
    2.8438   -3.1294   34.2157 S   0  0  0  0  0  0  0  0  0  0  0  0
    4.1832   -2.6647   34.4995 O   0  0  0  0  0  0  0  0  0  0  0  0
    2.4813   -4.0632   33.0322 N   0  0  0  0  0  0  0  0  0  0  0  0
    1.1609   -4.6801   32.7563 C   0  0  0  0  0  0  0  0  0  0  0  0
    0.2601   -4.9378   33.8531 C   0  0  0  0  0  0  0  0  0  0  0  0
   -0.4207   -6.0895   33.8911 C   0  0  0  0  0  0  0  0  0  0  0  0
   -0.7094   -6.6675   35.1019 N   0  0  0  0  0  0  0  0  0  0  0  0
    0.2741   -7.1990   35.8755 C   0  0  0  0  0  0  0  0  0  0  0  0
    0.1082   -8.0601   36.8335 N   0  0  0  0  0  0  0  0  0  0  0  0
    1.3324   -8.3463   37.3593 N   0  0  0  0  0  0  0  0  0  0  0  0
    2.2613   -7.7296   36.6675 C   0  0  0  0  0  0  0  0  0  0  0  0
    3.6903   -7.9001   36.8780 C   0  0  0  0  0  0  0  0  0  0  0  0
    4.1128   -8.5297   38.0633 C   0  0  0  0  0  0  0  0  0  0  0  0
    5.4538   -8.8258   38.2870 C   0  0  0  0  0  0  0  0  0  0  0  0
    6.3906   -8.5065   37.3140 C   0  0  0  0  0  0  0  0  0  0  0  0
    5.9879   -7.8677   36.1398 C   0  0  0  0  0  0  0  0  0  0  0  0
    4.6454   -7.5478   35.9247 C   0  0  0  0  0  0  0  0  0  0  0  0
    1.6219   -6.9510   35.7433 N   0  0  0  0  0  0  0  0  0  0  0  0
   -0.6209   -6.7657   32.6933 N   0  0  0  0  0  0  0  0  0  0  0  0
   -1.3508   -7.8760   32.3886 C   0  0  0  0  0  0  0  0  0  0  0  0
   -1.2973   -8.1015   31.0974 N   0  0  0  0  0  0  0  0  0  0  0  0
   -0.4419   -7.1695   30.5439 N   0  0  0  0  0  0  0  0  0  0  0  0
   -0.0251   -6.3709   31.5055 C   0  0  0  0  0  0  0  0  0  0  0  0
    0.9754   -5.3431   31.5872 C   0  0  0  0  0  0  0  0  0  0  0  0
    2.5631   -4.0936   35.6278 N   0  0  0  0  0  0  0  0  0  0  0  0
    2.1904   -3.4688   36.9135 C   0  0  0  0  0  0  0  0  0  0  0  0
    1.5706   -4.4409   37.9189 C   0  0  0  0  0  0  0  0  0  0  0  0
    0.1756   -4.6559   37.9297 C   0  0  0  0  0  0  0  0  0  0  0  0
   -0.4217   -5.5577   38.8240 C   0  0  0  0  0  0  0  0  0  0  0  0
    0.3797   -6.2560   39.6924 C   0  0  0  0  0  0  0  0  0  0  0  0
    1.7315   -6.0483   39.7134 C   0  0  0  0  0  0  0  0  0  0  0  0
    2.3489   -5.1445   38.8582 C   0  0  0  0  0  0  0  0  0  0  0  0
    2.3579   -6.8355   40.6303 O   0  0  0  0  0  0  0  0  0  0  0  0
    1.2487   -7.6574   41.0663 C   0  0  0  0  0  0  0  0  0  0  0  0
   -0.0279   -7.1794   40.5985 O   0  0  0  0  0  0  0  0  0  0  0  0
    1.6758   -1.4275   32.0741 H   0  0  0  0  0  0  0  0  0  0  0  0
    2.9744   -0.5274   32.8693 H   0  0  0  0  0  0  0  0  0  0  0  0
    1.2942    0.0181   33.0233 H   0  0  0  0  0  0  0  0  0  0  0  0
    0.7317   -2.0529   34.3108 H   0  0  0  0  0  0  0  0  0  0  0  0
    2.0139   -1.1148   35.1063 H   0  0  0  0  0  0  0  0  0  0  0  0
    0.3419   -4.3612   34.7618 H   0  0  0  0  0  0  0  0  0  0  0  0
   -1.5476   -7.2434   35.1304 H   0  0  0  0  0  0  0  0  0  0  0  0
    3.3806   -8.8201   38.8173 H   0  0  0  0  0  0  0  0  0  0  0  0
    5.7570   -9.3197   39.2062 H   0  0  0  0  0  0  0  0  0  0  0  0
    7.4396   -8.7458   37.4714 H   0  0  0  0  0  0  0  0  0  0  0  0
    6.7325   -7.6121   35.3886 H   0  0  0  0  0  0  0  0  0  0  0  0
    4.3700   -7.0546   34.9987 H   0  0  0  0  0  0  0  0  0  0  0  0
    2.0512   -6.2678   35.1409 H   0  0  0  0  0  0  0  0  0  0  0  0
   -1.9094   -8.4513   33.1107 H   0  0  0  0  0  0  0  0  0  0  0  0
    1.6787   -5.2438   30.7685 H   0  0  0  0  0  0  0  0  0  0  0  0
    3.4858   -4.4976   35.7820 H   0  0  0  0  0  0  0  0  0  0  0  0
    1.4568   -2.6732   36.7445 H   0  0  0  0  0  0  0  0  0  0  0  0
    3.0676   -2.9858   37.3606 H   0  0  0  0  0  0  0  0  0  0  0  0
   -0.4696   -4.1210   37.2356 H   0  0  0  0  0  0  0  0  0  0  0  0
   -1.4930   -5.7032   38.8291 H   0  0  0  0  0  0  0  0  0  0  0  0
    3.4265   -5.0202   38.9040 H   0  0  0  0  0  0  0  0  0  0  0  0
    1.4019   -8.6822   40.7055 H   0  0  0  0  0  0  0  0  0  0  0  0
    1.2369   -7.6678   42.1616 H   0  0  0  0  0  0  0  0  0  0  0  0
  1  2  1  0
  2  3  1  0
  3  4  2  0
  3  5  2  0
  5  6  1  0
  6  7  1  0
  7  8  2  0
  8  9  1  0
  9 10  1  0
 10 11  2  0
 11 12  1  0
 12 13  2  0
 13 14  1  0
 14 15  2  0
 15 16  1  0
 16 17  2  0
 17 18  1  0
 18 19  2  0
 13 20  1  0
  8 21  1  0
 21 22  1  0
 22 23  2  0
 23 24  1  0
 24 25  2  0
 25 26  1  0
  3 27  1  0
 27 28  1  0
 28 29  1  0
 29 30  2  0
 30 31  1  0
 31 32  2  0
 32 33  1  0
 33 34  2  0
 33 35  1  0
 35 36  1  0
 36 37  1  0
 26  6  2  0
 34 29  1  0
 20 10  1  0
 25 21  1  0
 37 32  1  0
 19 14  1  0
  1 38  1  0
  1 39  1  0
  1 40  1  0
  2 41  1  0
  2 42  1  0
  7 43  1  0
  9 44  1  0
 15 45  1  0
 16 46  1  0
 17 47  1  0
 18 48  1  0
 19 49  1  0
 20 50  1  0
 22 51  1  0
 26 52  1  0
 27 53  1  0
 28 54  1  0
 28 55  1  0
 30 56  1  0
 31 57  1  0
 34 58  1  0
 36 59  1  0
 36 60  1  0
M  END
>  <Energy>  (655) 
-35.28305720436942

>  <compound_id>  (655) 
1627

>  <target_id>  (655) 
1

>  <reference_id>  (655) 
164

>  <inspiration_ids>  (655) 
[149, 164]

>  <energy_score>  (655) 
-56.25852041267029

>  <distance_score>  (655) 
1.739500395201755

>  <path>  (655) 
/opt/xchem-fragalysis-2/maxwin/BulkDock/SCRATCH/505735/C1627-P164/C1627-P164.minimised.mol

>  <scratch_subdir>  (655) 
/opt/xchem-fragalysis-2/maxwin/BulkDock/SCRATCH/505735/C1627-P164

>  <fragmenstein_runtime>  (655) 
13.022609233856201

>  <fragmenstein_outcome>  (655) 
too moved

>  <fragmenstein_mode>  (655) 
expansion

>  <fragmenstein_error>  (655) 


$$$$
C4277-P149
     RDKit          3D

 50 54  0  0  0  0  0  0  0  0999 V2000
   -0.1377   -6.3975   37.7472 N   0  0  0  0  0  0  0  0  0  0  0  0
   -0.4074   -5.6730   36.5114 C   0  0  0  0  0  0  0  0  0  0  0  0
    0.0390   -6.2382   35.2545 N   0  0  0  0  0  0  0  0  0  0  0  0
    1.2536   -6.8377   35.1683 C   0  0  0  0  0  0  0  0  0  0  0  0
    1.9293   -7.2269   34.1138 N   0  0  0  0  0  0  0  0  0  0  0  0
    3.0660   -7.8618   34.5469 N   0  0  0  0  0  0  0  0  0  0  0  0
    3.1012   -7.8123   35.8647 C   0  0  0  0  0  0  0  0  0  0  0  0
    4.1275   -8.3674   36.7362 C   0  0  0  0  0  0  0  0  0  0  0  0
    4.0578   -8.2779   38.1345 C   0  0  0  0  0  0  0  0  0  0  0  0
    5.0475   -8.8584   38.9294 C   0  0  0  0  0  0  0  0  0  0  0  0
    6.1107   -9.5333   38.3357 C   0  0  0  0  0  0  0  0  0  0  0  0
    6.1920   -9.6249   36.9495 C   0  0  0  0  0  0  0  0  0  0  0  0
    5.2097   -9.0428   36.1545 C   0  0  0  0  0  0  0  0  0  0  0  0
    1.9696   -7.1799   36.2820 N   0  0  0  0  0  0  0  0  0  0  0  0
   -0.5591   -5.6742   34.0323 C   0  0  0  0  0  0  0  0  0  0  0  0
    0.0384   -4.2869   33.7208 C   0  0  0  0  0  0  0  0  0  0  0  0
   -0.3179   -3.8102   32.3077 C   0  0  0  0  0  0  0  0  0  0  0  0
    0.2204   -4.7908   31.2488 C   0  0  0  0  0  0  0  0  0  0  0  0
    1.7526   -4.7469   31.2888 C   0  0  0  0  0  0  0  0  0  0  0  0
    2.1796   -4.6512   29.8391 C   0  0  0  0  0  0  0  0  0  0  0  0
    1.1549   -3.8001   29.2448 N   0  0  0  0  0  0  0  0  0  0  0  0
   -0.1045   -4.3075   29.8187 C   0  0  0  0  0  0  0  0  0  0  0  0
   -0.3273   -6.1629   31.5683 C   0  0  0  0  0  0  0  0  0  0  0  0
   -0.6928   -7.1400   30.7601 N   0  0  0  0  0  0  0  0  0  0  0  0
   -1.2704   -8.1337   31.5206 N   0  0  0  0  0  0  0  0  0  0  0  0
   -1.2043   -7.7648   32.7797 C   0  0  0  0  0  0  0  0  0  0  0  0
   -0.6160   -6.5423   32.8577 N   0  0  0  0  0  0  0  0  0  0  0  0
   -0.5356   -7.3325   37.6277 H   0  0  0  0  0  0  0  0  0  0  0  0
   -0.6809   -5.9670   38.4977 H   0  0  0  0  0  0  0  0  0  0  0  0
   -1.4924   -5.5241   36.4638 H   0  0  0  0  0  0  0  0  0  0  0  0
    0.0285   -4.6726   36.6227 H   0  0  0  0  0  0  0  0  0  0  0  0
    3.2362   -7.7711   38.6325 H   0  0  0  0  0  0  0  0  0  0  0  0
    4.9860   -8.7898   40.0129 H   0  0  0  0  0  0  0  0  0  0  0  0
    6.8787   -9.9880   38.9567 H   0  0  0  0  0  0  0  0  0  0  0  0
    7.0227  -10.1503   36.4853 H   0  0  0  0  0  0  0  0  0  0  0  0
    5.2874   -9.1300   35.0716 H   0  0  0  0  0  0  0  0  0  0  0  0
    1.6493   -7.0304   37.2283 H   0  0  0  0  0  0  0  0  0  0  0  0
   -1.6188   -5.5153   34.2418 H   0  0  0  0  0  0  0  0  0  0  0  0
   -0.3385   -3.5570   34.4484 H   0  0  0  0  0  0  0  0  0  0  0  0
    1.1269   -4.2969   33.8514 H   0  0  0  0  0  0  0  0  0  0  0  0
    0.0880   -2.8026   32.1511 H   0  0  0  0  0  0  0  0  0  0  0  0
   -1.4087   -3.7184   32.2232 H   0  0  0  0  0  0  0  0  0  0  0  0
    2.1683   -5.5968   31.8265 H   0  0  0  0  0  0  0  0  0  0  0  0
    2.1187   -3.8456   31.7994 H   0  0  0  0  0  0  0  0  0  0  0  0
    2.1793   -5.6332   29.3559 H   0  0  0  0  0  0  0  0  0  0  0  0
    3.1778   -4.2174   29.7287 H   0  0  0  0  0  0  0  0  0  0  0  0
    1.2896   -2.8328   29.5411 H   0  0  0  0  0  0  0  0  0  0  0  0
   -0.8678   -3.5220   29.7989 H   0  0  0  0  0  0  0  0  0  0  0  0
   -0.4614   -5.1171   29.1807 H   0  0  0  0  0  0  0  0  0  0  0  0
   -1.5647   -8.3198   33.6348 H   0  0  0  0  0  0  0  0  0  0  0  0
  1  2  1  0
  2  3  1  0
  3  4  1  0
  4  5  2  0
  5  6  1  0
  6  7  2  0
  7  8  1  0
  8  9  2  0
  9 10  1  0
 10 11  2  0
 11 12  1  0
 12 13  2  0
  7 14  1  0
  3 15  1  0
 15 16  1  0
 16 17  1  0
 17 18  1  0
 18 19  1  0
 19 20  1  0
 20 21  1  0
 21 22  1  0
 18 23  1  0
 23 24  2  0
 24 25  1  0
 25 26  2  0
 26 27  1  0
 14  4  1  0
 27 15  1  0
 13  8  1  0
 22 18  1  0
 27 23  1  0
  1 28  1  0
  1 29  1  0
  2 30  1  0
  2 31  1  0
  9 32  1  0
 10 33  1  0
 11 34  1  0
 12 35  1  0
 13 36  1  0
 14 37  1  0
 15 38  1  0
 16 39  1  0
 16 40  1  0
 17 41  1  0
 17 42  1  0
 19 43  1  0
 19 44  1  0
 20 45  1  0
 20 46  1  0
 21 47  1  0
 22 48  1  0
 22 49  1  0
 26 50  1  0
M  END
>  <Energy>  (656) 
-31.652393639646181

>  <compound_id>  (656) 
4277

>  <target_id>  (656) 
1

>  <reference_id>  (656) 
149

>  <inspiration_ids>  (656) 
[149, 166]

>  <energy_score>  (656) 
-69.63804341680617

>  <distance_score>  (656) 
1.0239762270435577

>  <path>  (656) 
/opt/xchem-fragalysis-2/maxwin/BulkDock/SCRATCH/505735/C4277-P149/C4277-P149.minimised.mol

>  <scratch_subdir>  (656) 
/opt/xchem-fragalysis-2/maxwin/BulkDock/SCRATCH/505735/C4277-P149

>  <fragmenstein_runtime>  (656) 
2.5724804401397705

>  <fragmenstein_outcome>  (656) 
too moved

>  <fragmenstein_mode>  (656) 
expansion

>  <fragmenstein_error>  (656) 


$$$$
C4277-P166
     RDKit          3D

 50 54  0  0  0  0  0  0  0  0999 V2000
   -0.5243   -6.0547   37.7093 N   0  0  0  0  0  0  0  0  0  0  0  0
   -0.4264   -5.4429   36.4054 C   0  0  0  0  0  0  0  0  0  0  0  0
   -0.0215   -6.2172   35.2462 N   0  0  0  0  0  0  0  0  0  0  0  0
    1.1281   -6.9369   35.2739 C   0  0  0  0  0  0  0  0  0  0  0  0
    1.8647   -7.3365   34.2679 N   0  0  0  0  0  0  0  0  0  0  0  0
    2.9371   -8.0148   34.7662 N   0  0  0  0  0  0  0  0  0  0  0  0
    2.8790   -8.0039   36.0784 C   0  0  0  0  0  0  0  0  0  0  0  0
    3.8887   -8.5382   36.9787 C   0  0  0  0  0  0  0  0  0  0  0  0
    3.8135   -8.4052   38.3700 C   0  0  0  0  0  0  0  0  0  0  0  0
    4.8256   -8.9243   39.1801 C   0  0  0  0  0  0  0  0  0  0  0  0
    5.9142   -9.5801   38.6089 C   0  0  0  0  0  0  0  0  0  0  0  0
    5.9989   -9.7184   37.2282 C   0  0  0  0  0  0  0  0  0  0  0  0
    4.9946   -9.1989   36.4194 C   0  0  0  0  0  0  0  0  0  0  0  0
    1.7010   -7.4090   36.4257 N   0  0  0  0  0  0  0  0  0  0  0  0
   -0.4390   -5.6435   33.9350 C   0  0  0  0  0  0  0  0  0  0  0  0
    0.4025   -4.3996   33.5603 C   0  0  0  0  0  0  0  0  0  0  0  0
    1.3672   -4.6276   32.3988 C   0  0  0  0  0  0  0  0  0  0  0  0
    0.6549   -5.1677   31.1349 C   0  0  0  0  0  0  0  0  0  0  0  0
    1.7210   -5.4480   30.0639 C   0  0  0  0  0  0  0  0  0  0  0  0
    1.8273   -4.1632   29.2370 C   0  0  0  0  0  0  0  0  0  0  0  0
    0.8459   -3.2343   29.7939 N   0  0  0  0  0  0  0  0  0  0  0  0
   -0.1675   -4.0890   30.4148 C   0  0  0  0  0  0  0  0  0  0  0  0
   -0.1851   -6.3524   31.5198 C   0  0  0  0  0  0  0  0  0  0  0  0
   -0.6919   -7.2985   30.7529 N   0  0  0  0  0  0  0  0  0  0  0  0
   -1.4134   -8.1570   31.5551 N   0  0  0  0  0  0  0  0  0  0  0  0
   -1.3290   -7.7207   32.7928 C   0  0  0  0  0  0  0  0  0  0  0  0
   -0.6049   -6.5702   32.8126 N   0  0  0  0  0  0  0  0  0  0  0  0
   -0.7860   -7.0299   37.6109 H   0  0  0  0  0  0  0  0  0  0  0  0
    0.3071   -5.9297   38.2702 H   0  0  0  0  0  0  0  0  0  0  0  0
   -1.4235   -5.0300   36.2128 H   0  0  0  0  0  0  0  0  0  0  0  0
    0.2272   -4.5668   36.5010 H   0  0  0  0  0  0  0  0  0  0  0  0
    2.9795   -7.9042   38.8512 H   0  0  0  0  0  0  0  0  0  0  0  0
    4.7640   -8.8209   40.2610 H   0  0  0  0  0  0  0  0  0  0  0  0
    6.6976   -9.9843   39.2456 H   0  0  0  0  0  0  0  0  0  0  0  0
    6.8477  -10.2287   36.7809 H   0  0  0  0  0  0  0  0  0  0  0  0
    5.0797   -9.3141   35.3395 H   0  0  0  0  0  0  0  0  0  0  0  0
    1.3150   -7.3442   37.3496 H   0  0  0  0  0  0  0  0  0  0  0  0
   -1.4643   -5.2798   34.0758 H   0  0  0  0  0  0  0  0  0  0  0  0
   -0.2853   -3.5886   33.2883 H   0  0  0  0  0  0  0  0  0  0  0  0
    0.9680   -4.0200   34.4187 H   0  0  0  0  0  0  0  0  0  0  0  0
    2.1431   -5.3334   32.7193 H   0  0  0  0  0  0  0  0  0  0  0  0
    1.8934   -3.6878   32.1905 H   0  0  0  0  0  0  0  0  0  0  0  0
    1.4395   -6.2825   29.4152 H   0  0  0  0  0  0  0  0  0  0  0  0
    2.6954   -5.6853   30.4990 H   0  0  0  0  0  0  0  0  0  0  0  0
    1.6137   -4.3712   28.1844 H   0  0  0  0  0  0  0  0  0  0  0  0
    2.8313   -3.7320   29.2958 H   0  0  0  0  0  0  0  0  0  0  0  0
    0.4257   -2.6684   29.0524 H   0  0  0  0  0  0  0  0  0  0  0  0
   -0.8218   -3.5168   31.0781 H   0  0  0  0  0  0  0  0  0  0  0  0
   -0.7802   -4.5196   29.6184 H   0  0  0  0  0  0  0  0  0  0  0  0
   -1.7691   -8.1824   33.6671 H   0  0  0  0  0  0  0  0  0  0  0  0
  1  2  1  0
  2  3  1  0
  3  4  1  0
  4  5  2  0
  5  6  1  0
  6  7  2  0
  7  8  1  0
  8  9  2  0
  9 10  1  0
 10 11  2  0
 11 12  1  0
 12 13  2  0
  7 14  1  0
  3 15  1  0
 15 16  1  0
 16 17  1  0
 17 18  1  0
 18 19  1  0
 19 20  1  0
 20 21  1  0
 21 22  1  0
 18 23  1  0
 23 24  2  0
 24 25  1  0
 25 26  2  0
 26 27  1  0
 14  4  1  0
 27 15  1  0
 13  8  1  0
 22 18  1  0
 27 23  1  0
  1 28  1  0
  1 29  1  0
  2 30  1  0
  2 31  1  0
  9 32  1  0
 10 33  1  0
 11 34  1  0
 12 35  1  0
 13 36  1  0
 14 37  1  0
 15 38  1  0
 16 39  1  0
 16 40  1  0
 17 41  1  0
 17 42  1  0
 19 43  1  0
 19 44  1  0
 20 45  1  0
 20 46  1  0
 21 47  1  0
 22 48  1  0
 22 49  1  0
 26 50  1  0
M  END
>  <Energy>  (657) 
-24.803432471926946

>  <compound_id>  (657) 
4277

>  <target_id>  (657) 
1

>  <reference_id>  (657) 
166

>  <inspiration_ids>  (657) 
[149, 166]

>  <energy_score>  (657) 
-62.78908224908858

>  <distance_score>  (657) 
0.9495940986227233

>  <path>  (657) 
/opt/xchem-fragalysis-2/maxwin/BulkDock/SCRATCH/505735/C4277-P166/C4277-P166.minimised.mol

>  <scratch_subdir>  (657) 
/opt/xchem-fragalysis-2/maxwin/BulkDock/SCRATCH/505735/C4277-P166

>  <fragmenstein_runtime>  (657) 
2.6272053718566895

>  <fragmenstein_outcome>  (657) 
acceptable

>  <fragmenstein_mode>  (657) 
expansion

>  <fragmenstein_error>  (657) 


$$$$
C4278-P149
     RDKit          3D

 49 53  0  0  0  0  0  0  0  0999 V2000
    6.0472   -5.6133   29.4137 C   0  0  0  0  0  0  0  0  0  0  0  0
    5.1602   -4.3742   29.2266 C   0  0  0  0  0  0  0  0  0  0  0  0
    4.6773   -4.3854   27.7867 C   0  0  0  0  0  0  0  0  0  0  0  0
    3.4840   -5.3096   27.8811 C   0  0  0  0  0  0  0  0  0  0  0  0
    3.0072   -5.2988   29.2654 O   0  0  0  0  0  0  0  0  0  0  0  0
    3.8007   -4.3428   30.0022 C   0  0  0  0  0  0  0  0  0  0  0  0
    3.8837   -4.3727   31.6564 C   0  0  0  0  0  0  0  0  0  0  0  0
    2.6941   -4.8976   32.6650 N   0  0  0  0  0  0  0  0  0  0  0  0
    3.2155   -5.5291   33.7729 C   0  0  0  0  0  0  0  0  0  0  0  0
    4.4915   -5.8075   33.9103 N   0  0  0  0  0  0  0  0  0  0  0  0
    4.6727   -6.6119   34.9682 N   0  0  0  0  0  0  0  0  0  0  0  0
    3.5371   -6.7106   35.6187 C   0  0  0  0  0  0  0  0  0  0  0  0
    3.4446   -7.4599   36.8644 C   0  0  0  0  0  0  0  0  0  0  0  0
    4.6597   -7.8509   37.4769 C   0  0  0  0  0  0  0  0  0  0  0  0
    4.6963   -8.6388   38.6218 C   0  0  0  0  0  0  0  0  0  0  0  0
    3.5020   -9.0487   39.1777 C   0  0  0  0  0  0  0  0  0  0  0  0
    2.2940   -8.6463   38.6000 C   0  0  0  0  0  0  0  0  0  0  0  0
    2.2514   -7.8536   37.4496 C   0  0  0  0  0  0  0  0  0  0  0  0
    2.5816   -5.9968   34.9119 N   0  0  0  0  0  0  0  0  0  0  0  0
    1.3761   -4.8089   32.2046 C   0  0  0  0  0  0  0  0  0  0  0  0
    1.0617   -3.7049   31.4890 C   0  0  0  0  0  0  0  0  0  0  0  0
    0.2208   -3.8355   30.3262 C   0  0  0  0  0  0  0  0  0  0  0  0
   -0.2701   -5.0313   29.9776 C   0  0  0  0  0  0  0  0  0  0  0  0
   -0.2642   -6.0975   30.9137 C   0  0  0  0  0  0  0  0  0  0  0  0
   -0.9177   -7.2409   30.9634 N   0  0  0  0  0  0  0  0  0  0  0  0
   -0.6658   -7.8008   32.1874 N   0  0  0  0  0  0  0  0  0  0  0  0
    0.1919   -7.0201   32.8136 C   0  0  0  0  0  0  0  0  0  0  0  0
    0.5279   -5.9379   32.0407 N   0  0  0  0  0  0  0  0  0  0  0  0
    6.9574   -5.5169   28.8107 H   0  0  0  0  0  0  0  0  0  0  0  0
    5.5557   -6.5400   29.1076 H   0  0  0  0  0  0  0  0  0  0  0  0
    6.3617   -5.7120   30.4563 H   0  0  0  0  0  0  0  0  0  0  0  0
    5.7472   -3.4768   29.4498 H   0  0  0  0  0  0  0  0  0  0  0  0
    4.3456   -3.3799   27.4998 H   0  0  0  0  0  0  0  0  0  0  0  0
    5.4142   -4.7137   27.0477 H   0  0  0  0  0  0  0  0  0  0  0  0
    2.6838   -4.9544   27.2330 H   0  0  0  0  0  0  0  0  0  0  0  0
    3.7286   -6.3435   27.6206 H   0  0  0  0  0  0  0  0  0  0  0  0
    3.3349   -3.3706   29.7856 H   0  0  0  0  0  0  0  0  0  0  0  0
    4.0881   -3.3423   31.9786 H   0  0  0  0  0  0  0  0  0  0  0  0
    4.8005   -4.9213   31.8879 H   0  0  0  0  0  0  0  0  0  0  0  0
    5.6112   -7.5478   37.0380 H   0  0  0  0  0  0  0  0  0  0  0  0
    5.6452   -8.9305   39.0614 H   0  0  0  0  0  0  0  0  0  0  0  0
    3.4945   -9.6704   40.0690 H   0  0  0  0  0  0  0  0  0  0  0  0
    1.3563   -8.9748   39.0482 H   0  0  0  0  0  0  0  0  0  0  0  0
    1.2843   -7.6026   37.0262 H   0  0  0  0  0  0  0  0  0  0  0  0
    1.6294   -5.8244   35.1893 H   0  0  0  0  0  0  0  0  0  0  0  0
    1.6693   -2.8047   31.5267 H   0  0  0  0  0  0  0  0  0  0  0  0
    0.1646   -2.9982   29.6341 H   0  0  0  0  0  0  0  0  0  0  0  0
   -0.7520   -5.1422   29.0142 H   0  0  0  0  0  0  0  0  0  0  0  0
    0.5613   -7.1969   33.8073 H   0  0  0  0  0  0  0  0  0  0  0  0
  1  2  1  0
  2  3  1  0
  3  4  1  0
  4  5  1  0
  5  6  1  0
  6  7  1  0
  7  8  1  0
  8  9  1  0
  9 10  2  0
 10 11  1  0
 11 12  2  0
 12 13  1  0
 13 14  2  0
 14 15  1  0
 15 16  2  0
 16 17  1  0
 17 18  2  0
 12 19  1  0
  8 20  1  0
 20 21  2  0
 21 22  1  0
 22 23  2  0
 23 24  1  0
 24 25  2  0
 25 26  1  0
 26 27  2  0
 27 28  1  0
  6  2  1  0
 19  9  1  0
 28 20  1  0
 18 13  1  0
 28 24  1  0
  1 29  1  0
  1 30  1  0
  1 31  1  0
  2 32  1  0
  3 33  1  0
  3 34  1  0
  4 35  1  0
  4 36  1  0
  6 37  1  0
  7 38  1  0
  7 39  1  0
 14 40  1  0
 15 41  1  0
 16 42  1  0
 17 43  1  0
 18 44  1  0
 19 45  1  0
 21 46  1  0
 22 47  1  0
 23 48  1  0
 27 49  1  0
M  END
>  <Energy>  (658) 
144.67396730793385

>  <compound_id>  (658) 
4278

>  <target_id>  (658) 
1

>  <reference_id>  (658) 
149

>  <inspiration_ids>  (658) 
[149, 175]

>  <energy_score>  (658) 
13.720649194916234

>  <distance_score>  (658) 
2.6274779677240065

>  <path>  (658) 
/opt/xchem-fragalysis-2/maxwin/BulkDock/SCRATCH/505735/C4278-P149/C4278-P149.minimised.mol

>  <scratch_subdir>  (658) 
/opt/xchem-fragalysis-2/maxwin/BulkDock/SCRATCH/505735/C4278-P149

>  <fragmenstein_runtime>  (658) 
7.0837485790252686

>  <fragmenstein_outcome>  (658) 
too moved

>  <fragmenstein_mode>  (658) 
expansion

>  <fragmenstein_error>  (658) 


$$$$
C4278-P175
     RDKit          3D

 49 53  0  0  0  0  0  0  0  0999 V2000
    6.0972   -5.5255   29.4405 C   0  0  0  0  0  0  0  0  0  0  0  0
    4.6444   -5.8972   29.1963 C   0  0  0  0  0  0  0  0  0  0  0  0
    4.2576   -5.5278   27.7708 C   0  0  0  0  0  0  0  0  0  0  0  0
    3.8357   -4.0903   27.9215 C   0  0  0  0  0  0  0  0  0  0  0  0
    3.4179   -3.8966   29.3013 O   0  0  0  0  0  0  0  0  0  0  0  0
    3.5740   -5.1389   30.0424 C   0  0  0  0  0  0  0  0  0  0  0  0
    3.6916   -4.8118   31.6863 C   0  0  0  0  0  0  0  0  0  0  0  0
    2.4970   -5.3334   32.5825 N   0  0  0  0  0  0  0  0  0  0  0  0
    2.6117   -5.9406   33.8103 C   0  0  0  0  0  0  0  0  0  0  0  0
    1.6233   -6.4342   34.5273 N   0  0  0  0  0  0  0  0  0  0  0  0
    2.1272   -7.1786   35.5461 N   0  0  0  0  0  0  0  0  0  0  0  0
    3.4328   -7.0491   35.5364 C   0  0  0  0  0  0  0  0  0  0  0  0
    4.3463   -7.7491   36.4273 C   0  0  0  0  0  0  0  0  0  0  0  0
    3.9139   -8.0931   37.7188 C   0  0  0  0  0  0  0  0  0  0  0  0
    4.7281   -8.8410   38.5689 C   0  0  0  0  0  0  0  0  0  0  0  0
    5.9760   -9.2680   38.1283 C   0  0  0  0  0  0  0  0  0  0  0  0
    6.4135   -8.9350   36.8476 C   0  0  0  0  0  0  0  0  0  0  0  0
    5.6105   -8.1694   36.0013 C   0  0  0  0  0  0  0  0  0  0  0  0
    3.7635   -6.1836   34.5145 N   0  0  0  0  0  0  0  0  0  0  0  0
    1.2111   -5.0569   32.0842 C   0  0  0  0  0  0  0  0  0  0  0  0
    0.9805   -3.8305   31.5656 C   0  0  0  0  0  0  0  0  0  0  0  0
    0.0929   -3.6962   30.4463 C   0  0  0  0  0  0  0  0  0  0  0  0
   -0.4870   -4.7775   29.9146 C   0  0  0  0  0  0  0  0  0  0  0  0
   -0.4767   -6.0205   30.6099 C   0  0  0  0  0  0  0  0  0  0  0  0
   -1.0807   -7.1722   30.3886 N   0  0  0  0  0  0  0  0  0  0  0  0
   -0.8137   -7.9927   31.4473 N   0  0  0  0  0  0  0  0  0  0  0  0
   -0.0037   -7.3389   32.2538 C   0  0  0  0  0  0  0  0  0  0  0  0
    0.3099   -6.1026   31.7435 N   0  0  0  0  0  0  0  0  0  0  0  0
    6.2710   -4.4507   29.3252 H   0  0  0  0  0  0  0  0  0  0  0  0
    6.7584   -6.0510   28.7431 H   0  0  0  0  0  0  0  0  0  0  0  0
    6.4056   -5.7978   30.4543 H   0  0  0  0  0  0  0  0  0  0  0  0
    4.5565   -6.9753   29.3091 H   0  0  0  0  0  0  0  0  0  0  0  0
    5.0460   -5.6670   27.0256 H   0  0  0  0  0  0  0  0  0  0  0  0
    3.3965   -6.1320   27.4598 H   0  0  0  0  0  0  0  0  0  0  0  0
    3.0057   -3.8269   27.2595 H   0  0  0  0  0  0  0  0  0  0  0  0
    4.6632   -3.3994   27.7318 H   0  0  0  0  0  0  0  0  0  0  0  0
    2.6348   -5.6859   29.9009 H   0  0  0  0  0  0  0  0  0  0  0  0
    3.7128   -3.7202   31.7982 H   0  0  0  0  0  0  0  0  0  0  0  0
    4.6501   -5.1363   32.0984 H   0  0  0  0  0  0  0  0  0  0  0  0
    2.9212   -7.7978   38.0599 H   0  0  0  0  0  0  0  0  0  0  0  0
    4.3762   -9.1046   39.5633 H   0  0  0  0  0  0  0  0  0  0  0  0
    6.6064   -9.8638   38.7841 H   0  0  0  0  0  0  0  0  0  0  0  0
    7.3883   -9.2772   36.5079 H   0  0  0  0  0  0  0  0  0  0  0  0
    5.9753   -7.9504   35.0028 H   0  0  0  0  0  0  0  0  0  0  0  0
    4.6923   -5.8823   34.2741 H   0  0  0  0  0  0  0  0  0  0  0  0
    1.6376   -2.9860   31.7477 H   0  0  0  0  0  0  0  0  0  0  0  0
    0.0503   -2.7392   29.9322 H   0  0  0  0  0  0  0  0  0  0  0  0
   -1.0192   -4.6676   28.9761 H   0  0  0  0  0  0  0  0  0  0  0  0
    0.3473   -7.7153   33.1988 H   0  0  0  0  0  0  0  0  0  0  0  0
  1  2  1  0
  2  3  1  0
  3  4  1  0
  4  5  1  0
  5  6  1  0
  6  7  1  0
  7  8  1  0
  8  9  1  0
  9 10  2  0
 10 11  1  0
 11 12  2  0
 12 13  1  0
 13 14  2  0
 14 15  1  0
 15 16  2  0
 16 17  1  0
 17 18  2  0
 12 19  1  0
  8 20  1  0
 20 21  2  0
 21 22  1  0
 22 23  2  0
 23 24  1  0
 24 25  2  0
 25 26  1  0
 26 27  2  0
 27 28  1  0
  6  2  1  0
 19  9  1  0
 28 20  1  0
 18 13  1  0
 28 24  1  0
  1 29  1  0
  1 30  1  0
  1 31  1  0
  2 32  1  0
  3 33  1  0
  3 34  1  0
  4 35  1  0
  4 36  1  0
  6 37  1  0
  7 38  1  0
  7 39  1  0
 14 40  1  0
 15 41  1  0
 16 42  1  0
 17 43  1  0
 18 44  1  0
 19 45  1  0
 21 46  1  0
 22 47  1  0
 23 48  1  0
 27 49  1  0
M  END
>  <Energy>  (659) 
126.65815615927234

>  <compound_id>  (659) 
4278

>  <target_id>  (659) 
1

>  <reference_id>  (659) 
175

>  <inspiration_ids>  (659) 
[149, 175]

>  <energy_score>  (659) 
-4.295161953743104

>  <distance_score>  (659) 
2.417658402823931

>  <path>  (659) 
/opt/xchem-fragalysis-2/maxwin/BulkDock/SCRATCH/505735/C4278-P175/C4278-P175.minimised.mol

>  <scratch_subdir>  (659) 
/opt/xchem-fragalysis-2/maxwin/BulkDock/SCRATCH/505735/C4278-P175

>  <fragmenstein_runtime>  (659) 
6.377609968185425

>  <fragmenstein_outcome>  (659) 
too moved

>  <fragmenstein_mode>  (659) 
expansion

>  <fragmenstein_error>  (659) 


$$$$
C4279-P149
     RDKit          3D

 62 66  0  0  0  0  0  0  0  0999 V2000
    0.2064   -2.6325   29.2869 O   0  0  0  0  0  0  0  0  0  0  0  0
    1.3374   -1.7955   28.9549 S   0  0  0  0  0  0  0  0  0  0  0  0
    1.2308   -0.6719   28.0510 O   0  0  0  0  0  0  0  0  0  0  0  0
    1.9830   -1.1238   30.4860 C   0  0  0  0  0  0  0  0  0  0  0  0
    1.7495   -1.9978   31.7088 C   0  0  0  0  0  0  0  0  0  0  0  0
    2.6357   -3.2331   31.7129 C   0  0  0  0  0  0  0  0  0  0  0  0
    2.2785   -4.1257   32.7977 N   0  0  0  0  0  0  0  0  0  0  0  0
    1.2363   -5.0377   32.7731 C   0  0  0  0  0  0  0  0  0  0  0  0
    0.6005   -5.2616   34.0654 C   0  0  0  0  0  0  0  0  0  0  0  0
   -0.3891   -6.1627   34.2226 C   0  0  0  0  0  0  0  0  0  0  0  0
   -1.0859   -6.3454   35.4149 N   0  0  0  0  0  0  0  0  0  0  0  0
   -0.4540   -6.4268   36.6128 C   0  0  0  0  0  0  0  0  0  0  0  0
   -0.5106   -5.5901   37.6200 N   0  0  0  0  0  0  0  0  0  0  0  0
    0.2930   -6.0840   38.6205 N   0  0  0  0  0  0  0  0  0  0  0  0
    0.8194   -7.2219   38.2073 C   0  0  0  0  0  0  0  0  0  0  0  0
    1.7392   -8.0751   38.9449 C   0  0  0  0  0  0  0  0  0  0  0  0
    1.4755   -8.3902   40.2835 C   0  0  0  0  0  0  0  0  0  0  0  0
    2.3552   -9.1956   41.0106 C   0  0  0  0  0  0  0  0  0  0  0  0
    3.5147   -9.6814   40.4091 C   0  0  0  0  0  0  0  0  0  0  0  0
    3.7976   -9.3588   39.0828 C   0  0  0  0  0  0  0  0  0  0  0  0
    2.9141   -8.5578   38.3535 C   0  0  0  0  0  0  0  0  0  0  0  0
    0.3277   -7.4941   36.9537 N   0  0  0  0  0  0  0  0  0  0  0  0
   -0.7725   -6.8954   33.0939 N   0  0  0  0  0  0  0  0  0  0  0  0
   -1.6541   -7.9258   32.9393 C   0  0  0  0  0  0  0  0  0  0  0  0
   -1.7028   -8.2970   31.6792 N   0  0  0  0  0  0  0  0  0  0  0  0
   -0.8167   -7.5169   30.9762 N   0  0  0  0  0  0  0  0  0  0  0  0
   -0.2458   -6.6940   31.8317 C   0  0  0  0  0  0  0  0  0  0  0  0
    0.7789   -5.7199   31.6977 C   0  0  0  0  0  0  0  0  0  0  0  0
    2.6039   -2.7837   28.4351 N   0  0  0  0  0  0  0  0  0  0  0  0
    3.7408   -2.1878   27.7113 C   0  0  0  0  0  0  0  0  0  0  0  0
    4.4836   -3.2199   26.8672 C   0  0  0  0  0  0  0  0  0  0  0  0
    4.8559   -4.4586   27.6699 C   0  0  0  0  0  0  0  0  0  0  0  0
    5.1849   -5.5204   26.7726 O   0  0  0  0  0  0  0  0  0  0  0  0
    3.7402   -4.9366   28.5949 C   0  0  0  0  0  0  0  0  0  0  0  0
    2.4269   -4.2298   28.3015 C   0  0  0  0  0  0  0  0  0  0  0  0
    3.0386   -0.8757   30.3414 H   0  0  0  0  0  0  0  0  0  0  0  0
    1.4487   -0.1770   30.6304 H   0  0  0  0  0  0  0  0  0  0  0  0
    1.9647   -1.4090   32.6096 H   0  0  0  0  0  0  0  0  0  0  0  0
    0.6921   -2.2789   31.7781 H   0  0  0  0  0  0  0  0  0  0  0  0
    2.5567   -3.7745   30.7841 H   0  0  0  0  0  0  0  0  0  0  0  0
    3.6850   -2.9392   31.8267 H   0  0  0  0  0  0  0  0  0  0  0  0
    2.4145   -3.6882   33.7088 H   0  0  0  0  0  0  0  0  0  0  0  0
    0.9069   -4.6450   34.9067 H   0  0  0  0  0  0  0  0  0  0  0  0
   -1.7629   -5.5712   35.4699 H   0  0  0  0  0  0  0  0  0  0  0  0
    0.5754   -8.0097   40.7634 H   0  0  0  0  0  0  0  0  0  0  0  0
    2.1339   -9.4350   42.0473 H   0  0  0  0  0  0  0  0  0  0  0  0
    4.2033  -10.3000   40.9782 H   0  0  0  0  0  0  0  0  0  0  0  0
    4.7096   -9.7237   38.6175 H   0  0  0  0  0  0  0  0  0  0  0  0
    3.1616   -8.3006   37.3274 H   0  0  0  0  0  0  0  0  0  0  0  0
    0.4208   -8.3588   36.4450 H   0  0  0  0  0  0  0  0  0  0  0  0
   -2.2114   -8.3600   33.7563 H   0  0  0  0  0  0  0  0  0  0  0  0
    1.2086   -5.5957   30.7186 H   0  0  0  0  0  0  0  0  0  0  0  0
    4.4309   -1.7721   28.4549 H   0  0  0  0  0  0  0  0  0  0  0  0
    3.4228   -1.3629   27.0687 H   0  0  0  0  0  0  0  0  0  0  0  0
    3.8905   -3.5335   26.0040 H   0  0  0  0  0  0  0  0  0  0  0  0
    5.3887   -2.7708   26.4400 H   0  0  0  0  0  0  0  0  0  0  0  0
    5.7523   -4.2619   28.2700 H   0  0  0  0  0  0  0  0  0  0  0  0
    5.9612   -5.2365   26.2518 H   0  0  0  0  0  0  0  0  0  0  0  0
    3.6014   -6.0210   28.5192 H   0  0  0  0  0  0  0  0  0  0  0  0
    4.0515   -4.7197   29.6210 H   0  0  0  0  0  0  0  0  0  0  0  0
    1.6436   -4.6041   28.9556 H   0  0  0  0  0  0  0  0  0  0  0  0
    2.1471   -4.4643   27.2850 H   0  0  0  0  0  0  0  0  0  0  0  0
  1  2  2  0
  2  3  2  0
  2  4  1  0
  4  5  1  0
  5  6  1  0
  6  7  1  0
  7  8  1  0
  8  9  1  0
  9 10  2  0
 10 11  1  0
 11 12  1  0
 12 13  2  0
 13 14  1  0
 14 15  2  0
 15 16  1  0
 16 17  2  0
 17 18  1  0
 18 19  2  0
 19 20  1  0
 20 21  2  0
 15 22  1  0
 10 23  1  0
 23 24  1  0
 24 25  2  0
 25 26  1  0
 26 27  2  0
 27 28  1  0
  2 29  1  0
 29 30  1  0
 30 31  1  0
 31 32  1  0
 32 33  1  0
 32 34  1  0
 34 35  1  0
 28  8  2  0
 35 29  1  0
 22 12  1  0
 27 23  1  0
 21 16  1  0
  4 36  1  0
  4 37  1  0
  5 38  1  0
  5 39  1  0
  6 40  1  0
  6 41  1  0
  7 42  1  0
  9 43  1  0
 11 44  1  0
 17 45  1  0
 18 46  1  0
 19 47  1  0
 20 48  1  0
 21 49  1  0
 22 50  1  0
 24 51  1  0
 28 52  1  0
 30 53  1  0
 30 54  1  0
 31 55  1  0
 31 56  1  0
 32 57  1  0
 33 58  1  0
 34 59  1  0
 34 60  1  0
 35 61  1  0
 35 62  1  0
M  END
>  <Energy>  (660) 
-16.286002331355828

>  <compound_id>  (660) 
4279

>  <target_id>  (660) 
1

>  <reference_id>  (660) 
149

>  <inspiration_ids>  (660) 
[149, 177]

>  <energy_score>  (660) 
-53.185578296413155

>  <distance_score>  (660) 
1.6766730132427847

>  <path>  (660) 
/opt/xchem-fragalysis-2/maxwin/BulkDock/SCRATCH/505735/C4279-P149/C4279-P149.minimised.mol

>  <scratch_subdir>  (660) 
/opt/xchem-fragalysis-2/maxwin/BulkDock/SCRATCH/505735/C4279-P149

>  <fragmenstein_runtime>  (660) 
6.556417942047119

>  <fragmenstein_outcome>  (660) 
too moved

>  <fragmenstein_mode>  (660) 
expansion

>  <fragmenstein_error>  (660) 


$$$$
C4279-P177
     RDKit          3D

 62 66  0  0  0  0  0  0  0  0999 V2000
   -1.1763   -1.3854   30.8200 O   0  0  0  0  0  0  0  0  0  0  0  0
   -0.3233   -0.5278   30.0245 S   0  0  0  0  0  0  0  0  0  0  0  0
   -0.9022    0.5030   29.1890 O   0  0  0  0  0  0  0  0  0  0  0  0
    0.8693    0.2358   31.1189 C   0  0  0  0  0  0  0  0  0  0  0  0
    1.9811   -0.6636   31.6537 C   0  0  0  0  0  0  0  0  0  0  0  0
    1.4879   -1.9086   32.3910 C   0  0  0  0  0  0  0  0  0  0  0  0
    1.4321   -3.0517   31.4892 N   0  0  0  0  0  0  0  0  0  0  0  0
    0.7441   -4.2356   31.7068 C   0  0  0  0  0  0  0  0  0  0  0  0
    0.1767   -4.5150   33.0269 C   0  0  0  0  0  0  0  0  0  0  0  0
   -0.5567   -5.6258   33.2561 C   0  0  0  0  0  0  0  0  0  0  0  0
   -1.2053   -5.8882   34.4632 N   0  0  0  0  0  0  0  0  0  0  0  0
   -0.5481   -6.5111   35.4628 C   0  0  0  0  0  0  0  0  0  0  0  0
   -0.0022   -6.0017   36.5375 N   0  0  0  0  0  0  0  0  0  0  0  0
    0.5556   -7.0388   37.2427 N   0  0  0  0  0  0  0  0  0  0  0  0
    0.2814   -8.1616   36.6076 C   0  0  0  0  0  0  0  0  0  0  0  0
    0.6895   -9.5359   37.0233 C   0  0  0  0  0  0  0  0  0  0  0  0
    1.8593   -9.5694   38.4912 C   0  0  0  0  0  0  0  0  0  0  0  0
    2.4981  -11.1356   39.2457 C   0  0  0  0  0  0  0  0  0  0  0  0
    2.1265  -12.8311   38.5230 C   0  0  0  0  0  0  0  0  0  0  0  0
    1.1764  -12.8967   36.8941 C   0  0  0  0  0  0  0  0  0  0  0  0
    0.1424  -11.4455   36.1867 C   0  0  0  0  0  0  0  0  0  0  0  0
   -0.4289   -7.8642   35.4853 N   0  0  0  0  0  0  0  0  0  0  0  0
   -0.7439   -6.5017   32.1827 N   0  0  0  0  0  0  0  0  0  0  0  0
   -1.4485   -7.6652   32.0753 C   0  0  0  0  0  0  0  0  0  0  0  0
   -1.4223   -8.1054   30.8408 N   0  0  0  0  0  0  0  0  0  0  0  0
   -0.6502   -7.2398   30.1084 N   0  0  0  0  0  0  0  0  0  0  0  0
   -0.2387   -6.2877   30.9182 C   0  0  0  0  0  0  0  0  0  0  0  0
    0.5432   -5.1275   30.7111 C   0  0  0  0  0  0  0  0  0  0  0  0
    0.6420   -1.5310   29.0218 N   0  0  0  0  0  0  0  0  0  0  0  0
    1.5423   -0.7945   28.0873 C   0  0  0  0  0  0  0  0  0  0  0  0
    2.5999   -1.7432   27.5299 C   0  0  0  0  0  0  0  0  0  0  0  0
    2.1537   -3.2008   27.5431 C   0  0  0  0  0  0  0  0  0  0  0  0
    2.8431   -3.9448   26.5462 O   0  0  0  0  0  0  0  0  0  0  0  0
    0.6579   -3.3370   27.3023 C   0  0  0  0  0  0  0  0  0  0  0  0
   -0.1976   -2.5087   28.2526 C   0  0  0  0  0  0  0  0  0  0  0  0
    1.3099    1.0779   30.5747 H   0  0  0  0  0  0  0  0  0  0  0  0
    0.2896    0.6546   31.9494 H   0  0  0  0  0  0  0  0  0  0  0  0
    2.6755   -0.9355   30.8504 H   0  0  0  0  0  0  0  0  0  0  0  0
    2.5617   -0.0584   32.3619 H   0  0  0  0  0  0  0  0  0  0  0  0
    2.1985   -2.1486   33.1906 H   0  0  0  0  0  0  0  0  0  0  0  0
    0.5185   -1.7109   32.8614 H   0  0  0  0  0  0  0  0  0  0  0  0
    1.4182   -2.7865   30.4993 H   0  0  0  0  0  0  0  0  0  0  0  0
    0.3384   -3.8023   33.8279 H   0  0  0  0  0  0  0  0  0  0  0  0
   -1.5337   -4.9765   34.8163 H   0  0  0  0  0  0  0  0  0  0  0  0
    2.1117   -8.6220   38.9629 H   0  0  0  0  0  0  0  0  0  0  0  0
    3.1200  -11.0768   40.1351 H   0  0  0  0  0  0  0  0  0  0  0  0
    2.6922  -13.6504   38.9495 H   0  0  0  0  0  0  0  0  0  0  0  0
    1.3317  -13.7362   36.1923 H   0  0  0  0  0  0  0  0  0  0  0  0
   -0.5909  -11.6953   35.4491 H   0  0  0  0  0  0  0  0  0  0  0  0
   -0.8216   -8.5326   34.8366 H   0  0  0  0  0  0  0  0  0  0  0  0
   -1.9731   -8.1228   32.8951 H   0  0  0  0  0  0  0  0  0  0  0  0
    0.9469   -4.9758   29.7201 H   0  0  0  0  0  0  0  0  0  0  0  0
    0.9423   -0.3720   27.2782 H   0  0  0  0  0  0  0  0  0  0  0  0
    2.0443    0.0367   28.5905 H   0  0  0  0  0  0  0  0  0  0  0  0
    3.5173   -1.6615   28.1274 H   0  0  0  0  0  0  0  0  0  0  0  0
    2.8889   -1.4239   26.5213 H   0  0  0  0  0  0  0  0  0  0  0  0
    2.4117   -3.6481   28.5089 H   0  0  0  0  0  0  0  0  0  0  0  0
    3.7926   -3.7389   26.6016 H   0  0  0  0  0  0  0  0  0  0  0  0
    0.4297   -3.0467   26.2680 H   0  0  0  0  0  0  0  0  0  0  0  0
    0.3628   -4.3890   27.3811 H   0  0  0  0  0  0  0  0  0  0  0  0
   -0.9729   -1.9806   27.6846 H   0  0  0  0  0  0  0  0  0  0  0  0
   -0.7017   -3.1774   28.9572 H   0  0  0  0  0  0  0  0  0  0  0  0
  1  2  2  0
  2  3  2  0
  2  4  1  0
  4  5  1  0
  5  6  1  0
  6  7  1  0
  7  8  1  0
  8  9  1  0
  9 10  2  0
 10 11  1  0
 11 12  1  0
 12 13  2  0
 13 14  1  0
 14 15  2  0
 15 16  1  0
 16 17  2  0
 17 18  1  0
 18 19  2  0
 19 20  1  0
 20 21  2  0
 15 22  1  0
 10 23  1  0
 23 24  1  0
 24 25  2  0
 25 26  1  0
 26 27  2  0
 27 28  1  0
  2 29  1  0
 29 30  1  0
 30 31  1  0
 31 32  1  0
 32 33  1  0
 32 34  1  0
 34 35  1  0
 28  8  2  0
 35 29  1  0
 22 12  1  0
 27 23  1  0
 21 16  1  0
  4 36  1  0
  4 37  1  0
  5 38  1  0
  5 39  1  0
  6 40  1  0
  6 41  1  0
  7 42  1  0
  9 43  1  0
 11 44  1  0
 17 45  1  0
 18 46  1  0
 19 47  1  0
 20 48  1  0
 21 49  1  0
 22 50  1  0
 24 51  1  0
 28 52  1  0
 30 53  1  0
 30 54  1  0
 31 55  1  0
 31 56  1  0
 32 57  1  0
 33 58  1  0
 34 59  1  0
 34 60  1  0
 35 61  1  0
 35 62  1  0
M  END
>  <Energy>  (661) 
499.21859333388369

>  <compound_id>  (661) 
4279

>  <target_id>  (661) 
1

>  <reference_id>  (661) 
177

>  <inspiration_ids>  (661) 
[149, 177]

>  <energy_score>  (661) 
465.3297052529267

>  <distance_score>  (661) 
1.9757453041446265

>  <path>  (661) 
/opt/xchem-fragalysis-2/maxwin/BulkDock/SCRATCH/505735/C4279-P177/C4279-P177.minimised.mol

>  <scratch_subdir>  (661) 
/opt/xchem-fragalysis-2/maxwin/BulkDock/SCRATCH/505735/C4279-P177

>  <fragmenstein_runtime>  (661) 
14.027968168258667

>  <fragmenstein_outcome>  (661) 
too moved

>  <fragmenstein_mode>  (661) 
expansion

>  <fragmenstein_error>  (661) 


$$$$
C4281-P149
     RDKit          3D

 63 67  0  0  0  0  0  0  0  0999 V2000
    4.0196    1.3884   32.8576 C   0  0  0  0  0  0  0  0  0  0  0  0
    3.1295    1.5797   33.9690 O   0  0  0  0  0  0  0  0  0  0  0  0
    2.1353    0.6981   34.2461 C   0  0  0  0  0  0  0  0  0  0  0  0
    1.2839    0.9594   35.0949 O   0  0  0  0  0  0  0  0  0  0  0  0
    2.0673   -0.5904   33.4378 C   0  0  0  0  0  0  0  0  0  0  0  0
    1.3152   -0.3970   32.2324 N   0  0  0  0  0  0  0  0  0  0  0  0
    1.2735   -1.1496   31.0149 C   0  0  0  0  0  0  0  0  0  0  0  0
    1.9396   -2.1298   30.6398 N   0  0  0  0  0  0  0  0  0  0  0  0
    1.7301   -2.9098   29.4202 C   0  0  0  0  0  0  0  0  0  0  0  0
    0.4317   -3.7358   29.4598 C   0  0  0  0  0  0  0  0  0  0  0  0
    0.6428   -5.0975   29.9750 N   0  0  0  0  0  0  0  0  0  0  0  0
    0.3787   -5.4646   31.2910 C   0  0  0  0  0  0  0  0  0  0  0  0
    0.8033   -4.7645   32.3638 C   0  0  0  0  0  0  0  0  0  0  0  0
    0.4789   -5.1260   33.7303 C   0  0  0  0  0  0  0  0  0  0  0  0
   -0.2877   -6.2067   33.9918 C   0  0  0  0  0  0  0  0  0  0  0  0
   -0.6729   -6.6283   35.2593 N   0  0  0  0  0  0  0  0  0  0  0  0
   -0.6973   -5.8816   36.3847 C   0  0  0  0  0  0  0  0  0  0  0  0
   -0.3263   -6.2018   37.5989 N   0  0  0  0  0  0  0  0  0  0  0  0
   -0.5970   -5.1283   38.4179 N   0  0  0  0  0  0  0  0  0  0  0  0
   -1.1611   -4.1790   37.6937 C   0  0  0  0  0  0  0  0  0  0  0  0
   -1.6817   -2.8985   38.1603 C   0  0  0  0  0  0  0  0  0  0  0  0
   -1.7606   -1.7792   37.3181 C   0  0  0  0  0  0  0  0  0  0  0  0
   -2.2652   -0.5661   37.7953 C   0  0  0  0  0  0  0  0  0  0  0  0
   -2.7021   -0.4609   39.1144 C   0  0  0  0  0  0  0  0  0  0  0  0
   -2.6305   -1.5656   39.9600 C   0  0  0  0  0  0  0  0  0  0  0  0
   -2.1196   -2.7757   39.4858 C   0  0  0  0  0  0  0  0  0  0  0  0
   -1.2421   -4.6276   36.4015 N   0  0  0  0  0  0  0  0  0  0  0  0
   -0.7085   -6.9498   32.8754 N   0  0  0  0  0  0  0  0  0  0  0  0
   -1.5194   -8.0462   32.7844 C   0  0  0  0  0  0  0  0  0  0  0  0
   -1.6471   -8.4216   31.5325 N   0  0  0  0  0  0  0  0  0  0  0  0
   -0.9431   -7.5366   30.7552 N   0  0  0  0  0  0  0  0  0  0  0  0
   -0.3929   -6.6457   31.5592 C   0  0  0  0  0  0  0  0  0  0  0  0
    0.2324   -0.5319   30.1629 C   0  0  0  0  0  0  0  0  0  0  0  0
    0.2968   -0.1231   28.8079 C   0  0  0  0  0  0  0  0  0  0  0  0
   -0.9119    0.4760   28.5670 C   0  0  0  0  0  0  0  0  0  0  0  0
   -1.5004    1.1561   27.4003 C   0  0  0  0  0  0  0  0  0  0  0  0
   -1.6685    0.4212   29.6910 O   0  0  0  0  0  0  0  0  0  0  0  0
   -0.9487   -0.1785   30.7044 N   0  0  0  0  0  0  0  0  0  0  0  0
    3.4620    1.2530   31.9265 H   0  0  0  0  0  0  0  0  0  0  0  0
    4.6886    0.5444   33.0491 H   0  0  0  0  0  0  0  0  0  0  0  0
    4.6293    2.2935   32.7591 H   0  0  0  0  0  0  0  0  0  0  0  0
    3.0688   -0.9844   33.2394 H   0  0  0  0  0  0  0  0  0  0  0  0
    1.5696   -1.3440   34.0620 H   0  0  0  0  0  0  0  0  0  0  0  0
    0.5579    0.2904   32.2210 H   0  0  0  0  0  0  0  0  0  0  0  0
    1.7517   -2.2697   28.5353 H   0  0  0  0  0  0  0  0  0  0  0  0
    2.5891   -3.5816   29.3016 H   0  0  0  0  0  0  0  0  0  0  0  0
   -0.3733   -3.2409   30.0133 H   0  0  0  0  0  0  0  0  0  0  0  0
    0.0733   -3.8385   28.4304 H   0  0  0  0  0  0  0  0  0  0  0  0
    0.2139   -5.7765   29.3394 H   0  0  0  0  0  0  0  0  0  0  0  0
    1.4218   -3.8836   32.2413 H   0  0  0  0  0  0  0  0  0  0  0  0
    0.8914   -4.5000   34.5158 H   0  0  0  0  0  0  0  0  0  0  0  0
   -0.5031   -7.6236   35.4319 H   0  0  0  0  0  0  0  0  0  0  0  0
   -1.4108   -1.8227   36.2902 H   0  0  0  0  0  0  0  0  0  0  0  0
   -2.3047    0.3015   37.1409 H   0  0  0  0  0  0  0  0  0  0  0  0
   -3.0897    0.4839   39.4868 H   0  0  0  0  0  0  0  0  0  0  0  0
   -2.9672   -1.4897   40.9910 H   0  0  0  0  0  0  0  0  0  0  0  0
   -2.0747   -3.6347   40.1561 H   0  0  0  0  0  0  0  0  0  0  0  0
   -1.7266   -4.1845   35.6348 H   0  0  0  0  0  0  0  0  0  0  0  0
   -1.9870   -8.5083   33.6406 H   0  0  0  0  0  0  0  0  0  0  0  0
    1.1218   -0.2041   28.1175 H   0  0  0  0  0  0  0  0  0  0  0  0
   -0.7187    1.6220   26.7928 H   0  0  0  0  0  0  0  0  0  0  0  0
   -2.1901    1.9465   27.7081 H   0  0  0  0  0  0  0  0  0  0  0  0
   -2.0436    0.4421   26.7748 H   0  0  0  0  0  0  0  0  0  0  0  0
  1  2  1  0
  2  3  1  0
  3  4  2  0
  3  5  1  0
  5  6  1  0
  6  7  1  0
  7  8  2  3
  8  9  1  0
  9 10  1  0
 10 11  1  0
 11 12  1  0
 12 13  2  0
 13 14  1  0
 14 15  2  0
 15 16  1  0
 16 17  1  0
 17 18  2  0
 18 19  1  0
 19 20  2  0
 20 21  1  0
 21 22  2  0
 22 23  1  0
 23 24  2  0
 24 25  1  0
 25 26  2  0
 20 27  1  0
 15 28  1  0
 28 29  1  0
 29 30  2  0
 30 31  1  0
 31 32  2  0
  7 33  1  0
 33 34  1  0
 34 35  2  0
 35 36  1  0
 35 37  1  0
 37 38  1  0
 32 12  1  0
 38 33  2  0
 27 17  1  0
 32 28  1  0
 26 21  1  0
  1 39  1  0
  1 40  1  0
  1 41  1  0
  5 42  1  0
  5 43  1  0
  6 44  1  0
  9 45  1  0
  9 46  1  0
 10 47  1  0
 10 48  1  0
 11 49  1  0
 13 50  1  0
 14 51  1  0
 16 52  1  0
 22 53  1  0
 23 54  1  0
 24 55  1  0
 25 56  1  0
 26 57  1  0
 27 58  1  0
 29 59  1  0
 34 60  1  0
 36 61  1  0
 36 62  1  0
 36 63  1  0
M  END
>  <Energy>  (662) 
120.30261702755725

>  <compound_id>  (662) 
4281

>  <target_id>  (662) 
1

>  <reference_id>  (662) 
149

>  <inspiration_ids>  (662) 
[149, 186]

>  <energy_score>  (662) 
-54.1257965176755

>  <distance_score>  (662) 
2.3109356276144597

>  <path>  (662) 
/opt/xchem-fragalysis-2/maxwin/BulkDock/SCRATCH/505735/C4281-P149/C4281-P149.minimised.mol

>  <scratch_subdir>  (662) 
/opt/xchem-fragalysis-2/maxwin/BulkDock/SCRATCH/505735/C4281-P149

>  <fragmenstein_runtime>  (662) 
27.22636318206787

>  <fragmenstein_outcome>  (662) 
too moved

>  <fragmenstein_mode>  (662) 
expansion

>  <fragmenstein_error>  (662) 


$$$$
C4281-P186
     RDKit          3D

 63 67  0  0  0  0  0  0  0  0999 V2000
    1.0085   -3.3251   23.7212 C   0  0  0  0  0  0  0  0  0  0  0  0
    2.1138   -2.8630   24.4956 O   0  0  0  0  0  0  0  0  0  0  0  0
    1.6529   -2.3796   25.6722 C   0  0  0  0  0  0  0  0  0  0  0  0
    0.4603   -2.4636   25.9570 O   0  0  0  0  0  0  0  0  0  0  0  0
    2.7275   -1.6525   26.5079 C   0  0  0  0  0  0  0  0  0  0  0  0
    2.0327   -1.1128   27.6445 N   0  0  0  0  0  0  0  0  0  0  0  0
    0.9415   -1.7350   28.5451 C   0  0  0  0  0  0  0  0  0  0  0  0
    0.4785   -2.8370   28.5549 N   0  0  0  0  0  0  0  0  0  0  0  0
   -0.7262   -3.2867   29.1923 C   0  0  0  0  0  0  0  0  0  0  0  0
   -0.3937   -3.9099   30.5194 C   0  0  0  0  0  0  0  0  0  0  0  0
    0.5003   -5.0768   30.3686 N   0  0  0  0  0  0  0  0  0  0  0  0
    0.6621   -5.7946   31.5356 C   0  0  0  0  0  0  0  0  0  0  0  0
    1.4625   -5.2967   32.5014 C   0  0  0  0  0  0  0  0  0  0  0  0
    1.2734   -5.6304   33.8954 C   0  0  0  0  0  0  0  0  0  0  0  0
    0.2510   -6.4348   34.2537 C   0  0  0  0  0  0  0  0  0  0  0  0
   -0.1467   -6.6490   35.5672 N   0  0  0  0  0  0  0  0  0  0  0  0
   -0.4067   -5.6344   36.4301 C   0  0  0  0  0  0  0  0  0  0  0  0
    0.0215   -5.4743   37.6568 N   0  0  0  0  0  0  0  0  0  0  0  0
   -0.4892   -4.2853   38.1258 N   0  0  0  0  0  0  0  0  0  0  0  0
   -1.2491   -3.7507   37.1861 C   0  0  0  0  0  0  0  0  0  0  0  0
   -2.0199   -2.5112   37.2725 C   0  0  0  0  0  0  0  0  0  0  0  0
   -2.2657   -1.9422   38.5299 C   0  0  0  0  0  0  0  0  0  0  0  0
   -3.0132   -0.7687   38.6527 C   0  0  0  0  0  0  0  0  0  0  0  0
   -3.5244   -0.1459   37.5170 C   0  0  0  0  0  0  0  0  0  0  0  0
   -3.2868   -0.6948   36.2591 C   0  0  0  0  0  0  0  0  0  0  0  0
   -2.5370   -1.8688   36.1363 C   0  0  0  0  0  0  0  0  0  0  0  0
   -1.2267   -4.5914   36.1022 N   0  0  0  0  0  0  0  0  0  0  0  0
   -0.4711   -7.0541   33.2205 N   0  0  0  0  0  0  0  0  0  0  0  0
   -1.5150   -7.9275   33.2496 C   0  0  0  0  0  0  0  0  0  0  0  0
   -1.8802   -8.2540   32.0287 N   0  0  0  0  0  0  0  0  0  0  0  0
   -1.1005   -7.5425   31.1556 N   0  0  0  0  0  0  0  0  0  0  0  0
   -0.2611   -6.8254   31.8757 C   0  0  0  0  0  0  0  0  0  0  0  0
    0.3910   -0.7222   29.4413 C   0  0  0  0  0  0  0  0  0  0  0  0
    0.6120   -0.6542   30.8317 C   0  0  0  0  0  0  0  0  0  0  0  0
   -0.3290    0.2261   31.2870 C   0  0  0  0  0  0  0  0  0  0  0  0
   -0.6927    0.7160   32.6264 C   0  0  0  0  0  0  0  0  0  0  0  0
   -1.0261    0.7197   30.2316 O   0  0  0  0  0  0  0  0  0  0  0  0
   -0.5628    0.1426   29.0610 N   0  0  0  0  0  0  0  0  0  0  0  0
    0.2710   -2.5363   23.5639 H   0  0  0  0  0  0  0  0  0  0  0  0
    0.5218   -4.1832   24.1995 H   0  0  0  0  0  0  0  0  0  0  0  0
    1.3521   -3.6253   22.7342 H   0  0  0  0  0  0  0  0  0  0  0  0
    3.4786   -2.3784   26.8287 H   0  0  0  0  0  0  0  0  0  0  0  0
    3.1878   -0.8563   25.9200 H   0  0  0  0  0  0  0  0  0  0  0  0
    2.1223   -0.1237   27.8582 H   0  0  0  0  0  0  0  0  0  0  0  0
   -1.4848   -2.5050   29.3049 H   0  0  0  0  0  0  0  0  0  0  0  0
   -1.1664   -4.0458   28.5464 H   0  0  0  0  0  0  0  0  0  0  0  0
    0.0780   -3.1891   31.1899 H   0  0  0  0  0  0  0  0  0  0  0  0
   -1.3289   -4.2169   31.0030 H   0  0  0  0  0  0  0  0  0  0  0  0
    0.1307   -5.6733   29.6221 H   0  0  0  0  0  0  0  0  0  0  0  0
    2.1196   -4.4581   32.2819 H   0  0  0  0  0  0  0  0  0  0  0  0
    1.8797   -5.1085   34.6313 H   0  0  0  0  0  0  0  0  0  0  0  0
    0.4776   -7.3260   36.0148 H   0  0  0  0  0  0  0  0  0  0  0  0
   -1.8824   -2.4235   39.4297 H   0  0  0  0  0  0  0  0  0  0  0  0
   -3.1968   -0.3479   39.6384 H   0  0  0  0  0  0  0  0  0  0  0  0
   -4.1079    0.7658   37.6168 H   0  0  0  0  0  0  0  0  0  0  0  0
   -3.6879   -0.2109   35.3732 H   0  0  0  0  0  0  0  0  0  0  0  0
   -2.3707   -2.2690   35.1401 H   0  0  0  0  0  0  0  0  0  0  0  0
   -1.7754   -4.5028   35.2586 H   0  0  0  0  0  0  0  0  0  0  0  0
   -1.9580   -8.2805   34.1681 H   0  0  0  0  0  0  0  0  0  0  0  0
    1.3136   -1.2279   31.4183 H   0  0  0  0  0  0  0  0  0  0  0  0
   -1.7777    0.6962   32.7658 H   0  0  0  0  0  0  0  0  0  0  0  0
   -0.3376    1.7408   32.7679 H   0  0  0  0  0  0  0  0  0  0  0  0
   -0.2447    0.0916   33.4060 H   0  0  0  0  0  0  0  0  0  0  0  0
  1  2  1  0
  2  3  1  0
  3  4  2  0
  3  5  1  0
  5  6  1  0
  6  7  1  0
  7  8  2  3
  8  9  1  0
  9 10  1  0
 10 11  1  0
 11 12  1  0
 12 13  2  0
 13 14  1  0
 14 15  2  0
 15 16  1  0
 16 17  1  0
 17 18  2  0
 18 19  1  0
 19 20  2  0
 20 21  1  0
 21 22  2  0
 22 23  1  0
 23 24  2  0
 24 25  1  0
 25 26  2  0
 20 27  1  0
 15 28  1  0
 28 29  1  0
 29 30  2  0
 30 31  1  0
 31 32  2  0
  7 33  1  0
 33 34  1  0
 34 35  2  0
 35 36  1  0
 35 37  1  0
 37 38  1  0
 32 12  1  0
 38 33  2  0
 27 17  1  0
 32 28  1  0
 26 21  1  0
  1 39  1  0
  1 40  1  0
  1 41  1  0
  5 42  1  0
  5 43  1  0
  6 44  1  0
  9 45  1  0
  9 46  1  0
 10 47  1  0
 10 48  1  0
 11 49  1  0
 13 50  1  0
 14 51  1  0
 16 52  1  0
 22 53  1  0
 23 54  1  0
 24 55  1  0
 25 56  1  0
 26 57  1  0
 27 58  1  0
 29 59  1  0
 34 60  1  0
 36 61  1  0
 36 62  1  0
 36 63  1  0
M  END
>  <Energy>  (663) 
157.60100623161318

>  <compound_id>  (663) 
4281

>  <target_id>  (663) 
1

>  <reference_id>  (663) 
186

>  <inspiration_ids>  (663) 
[149, 186]

>  <energy_score>  (663) 
-15.99297654089196

>  <distance_score>  (663) 
1.563572831545728

>  <path>  (663) 
/opt/xchem-fragalysis-2/maxwin/BulkDock/SCRATCH/505735/C4281-P186/C4281-P186.minimised.mol

>  <scratch_subdir>  (663) 
/opt/xchem-fragalysis-2/maxwin/BulkDock/SCRATCH/505735/C4281-P186

>  <fragmenstein_runtime>  (663) 
14.153774499893188

>  <fragmenstein_outcome>  (663) 
too moved

>  <fragmenstein_mode>  (663) 
expansion

>  <fragmenstein_error>  (663) 


$$$$
C4283-P149
     RDKit          3D

 40 43  0  0  0  0  0  0  0  0999 V2000
    4.9865   -9.2914   35.7545 C   0  0  0  0  0  0  0  0  0  0  0  0
    4.2816   -8.0981   36.1752 N   0  0  0  0  0  0  0  0  0  0  0  0
    4.2940   -7.6495   37.5005 C   0  0  0  0  0  0  0  0  0  0  0  0
    3.0044   -7.2454   38.0743 C   0  0  0  0  0  0  0  0  0  0  0  0
    2.0492   -8.2053   38.3631 C   0  0  0  0  0  0  0  0  0  0  0  0
    0.7092   -7.8307   38.4350 C   0  0  0  0  0  0  0  0  0  0  0  0
    0.3101   -6.5051   38.2405 C   0  0  0  0  0  0  0  0  0  0  0  0
    1.2707   -5.5309   38.0212 C   0  0  0  0  0  0  0  0  0  0  0  0
    2.6135   -5.8959   37.9697 C   0  0  0  0  0  0  0  0  0  0  0  0
    5.3950   -6.9141   37.5356 N   0  0  0  0  0  0  0  0  0  0  0  0
    5.4802   -6.3505   36.2649 N   0  0  0  0  0  0  0  0  0  0  0  0
    4.4958   -6.8826   35.5425 C   0  0  0  0  0  0  0  0  0  0  0  0
    3.6636   -6.2952   34.5875 N   0  0  0  0  0  0  0  0  0  0  0  0
    4.2695   -5.0631   34.0621 C   0  0  0  0  0  0  0  0  0  0  0  0
    3.5255   -3.9429   34.5011 O   0  0  0  0  0  0  0  0  0  0  0  0
    2.2461   -6.5756   34.3991 C   0  0  0  0  0  0  0  0  0  0  0  0
    1.5588   -7.4852   35.1375 C   0  0  0  0  0  0  0  0  0  0  0  0
    0.1374   -7.7387   35.0221 C   0  0  0  0  0  0  0  0  0  0  0  0
   -0.5451   -7.2917   33.9708 C   0  0  0  0  0  0  0  0  0  0  0  0
    0.1718   -6.5486   33.0178 C   0  0  0  0  0  0  0  0  0  0  0  0
    0.0784   -6.4228   31.6628 C   0  0  0  0  0  0  0  0  0  0  0  0
   -0.8902   -7.6127   30.6132 Br  0  0  0  0  0  0  0  0  0  0  0  0
    0.9656   -5.5146   31.1919 N   0  0  0  0  0  0  0  0  0  0  0  0
    1.6825   -5.1891   32.2533 C   0  0  0  0  0  0  0  0  0  0  0  0
    1.4420   -6.0348   33.3193 N   0  0  0  0  0  0  0  0  0  0  0  0
    4.9268  -10.0372   36.5511 H   0  0  0  0  0  0  0  0  0  0  0  0
    6.0311   -9.0466   35.5439 H   0  0  0  0  0  0  0  0  0  0  0  0
    4.4955   -9.6654   34.8532 H   0  0  0  0  0  0  0  0  0  0  0  0
    2.3164   -9.2511   38.4647 H   0  0  0  0  0  0  0  0  0  0  0  0
   -0.0244   -8.6050   38.6365 H   0  0  0  0  0  0  0  0  0  0  0  0
   -0.7399   -6.2326   38.2912 H   0  0  0  0  0  0  0  0  0  0  0  0
    0.9791   -4.4925   37.8903 H   0  0  0  0  0  0  0  0  0  0  0  0
    3.3579   -5.1320   37.7518 H   0  0  0  0  0  0  0  0  0  0  0  0
    4.2984   -5.0813   32.9700 H   0  0  0  0  0  0  0  0  0  0  0  0
    5.3137   -4.9114   34.3619 H   0  0  0  0  0  0  0  0  0  0  0  0
    3.5097   -4.0375   35.4696 H   0  0  0  0  0  0  0  0  0  0  0  0
    1.9984   -8.1081   35.8849 H   0  0  0  0  0  0  0  0  0  0  0  0
   -0.3501   -8.3624   35.7692 H   0  0  0  0  0  0  0  0  0  0  0  0
   -1.5910   -7.5418   33.8272 H   0  0  0  0  0  0  0  0  0  0  0  0
    2.4348   -4.4161   32.2636 H   0  0  0  0  0  0  0  0  0  0  0  0
  1  2  1  0
  2  3  1  0
  3  4  1  0
  4  5  2  0
  5  6  1  0
  6  7  2  0
  7  8  1  0
  8  9  2  0
  3 10  2  0
 10 11  1  0
 11 12  2  0
 12 13  1  0
 13 14  1  0
 14 15  1  0
 13 16  1  0
 16 17  2  0
 17 18  1  0
 18 19  2  0
 19 20  1  0
 20 21  2  0
 21 22  1  0
 21 23  1  0
 23 24  2  0
 24 25  1  0
 12  2  1  0
 25 16  1  0
  9  4  1  0
 25 20  1  0
  1 26  1  0
  1 27  1  0
  1 28  1  0
  5 29  1  0
  6 30  1  0
  7 31  1  0
  8 32  1  0
  9 33  1  0
 14 34  1  0
 14 35  1  0
 15 36  1  0
 17 37  1  0
 18 38  1  0
 19 39  1  0
 24 40  1  0
M  END
>  <Energy>  (664) 
121.70119587504944

>  <compound_id>  (664) 
4283

>  <target_id>  (664) 
1

>  <reference_id>  (664) 
149

>  <inspiration_ids>  (664) 
[149, 188]

>  <energy_score>  (664) 
43.42728530747436

>  <distance_score>  (664) 
2.3099822064172333

>  <path>  (664) 
/opt/xchem-fragalysis-2/maxwin/BulkDock/SCRATCH/505735/C4283-P149/C4283-P149.minimised.mol

>  <scratch_subdir>  (664) 
/opt/xchem-fragalysis-2/maxwin/BulkDock/SCRATCH/505735/C4283-P149

>  <fragmenstein_runtime>  (664) 
3.674625873565674

>  <fragmenstein_outcome>  (664) 
too moved

>  <fragmenstein_mode>  (664) 
expansion

>  <fragmenstein_error>  (664) 


$$$$
C4283-P188
     RDKit          3D

 40 43  0  0  0  0  0  0  0  0999 V2000
    5.3409   -8.4192   35.0252 C   0  0  0  0  0  0  0  0  0  0  0  0
    4.3572   -7.4214   35.4069 N   0  0  0  0  0  0  0  0  0  0  0  0
    3.8345   -7.4118   36.6942 C   0  0  0  0  0  0  0  0  0  0  0  0
    2.3885   -7.3978   36.8843 C   0  0  0  0  0  0  0  0  0  0  0  0
    1.5531   -7.7661   35.8251 C   0  0  0  0  0  0  0  0  0  0  0  0
    0.1920   -7.5097   35.8641 C   0  0  0  0  0  0  0  0  0  0  0  0
   -0.3252   -6.7902   36.9281 C   0  0  0  0  0  0  0  0  0  0  0  0
    0.4844   -6.4421   38.0026 C   0  0  0  0  0  0  0  0  0  0  0  0
    1.8368   -6.7643   37.9939 C   0  0  0  0  0  0  0  0  0  0  0  0
    4.7030   -6.6688   37.3681 N   0  0  0  0  0  0  0  0  0  0  0  0
    5.1447   -5.7211   36.4423 N   0  0  0  0  0  0  0  0  0  0  0  0
    4.6100   -6.0610   35.2731 C   0  0  0  0  0  0  0  0  0  0  0  0
    4.1108   -5.2923   34.2111 N   0  0  0  0  0  0  0  0  0  0  0  0
    5.0226   -4.1676   33.9395 C   0  0  0  0  0  0  0  0  0  0  0  0
    4.6841   -3.5554   32.7016 O   0  0  0  0  0  0  0  0  0  0  0  0
    2.7007   -4.9696   34.1945 C   0  0  0  0  0  0  0  0  0  0  0  0
    2.0399   -4.4107   35.2376 C   0  0  0  0  0  0  0  0  0  0  0  0
    0.5874   -4.2565   35.1968 C   0  0  0  0  0  0  0  0  0  0  0  0
   -0.1669   -4.8444   34.2446 C   0  0  0  0  0  0  0  0  0  0  0  0
    0.4822   -5.4626   33.1545 C   0  0  0  0  0  0  0  0  0  0  0  0
    0.1868   -6.2902   32.0913 C   0  0  0  0  0  0  0  0  0  0  0  0
   -1.2918   -7.4255   31.8439 Br  0  0  0  0  0  0  0  0  0  0  0  0
    1.1835   -6.2131   31.1595 N   0  0  0  0  0  0  0  0  0  0  0  0
    2.1358   -5.5259   31.7567 C   0  0  0  0  0  0  0  0  0  0  0  0
    1.8698   -5.3162   33.0837 N   0  0  0  0  0  0  0  0  0  0  0  0
    5.7922   -8.8560   35.9206 H   0  0  0  0  0  0  0  0  0  0  0  0
    6.1151   -7.9539   34.4094 H   0  0  0  0  0  0  0  0  0  0  0  0
    4.8203   -9.1933   34.4579 H   0  0  0  0  0  0  0  0  0  0  0  0
    1.9556   -8.2285   34.9387 H   0  0  0  0  0  0  0  0  0  0  0  0
   -0.4577   -7.8298   35.0550 H   0  0  0  0  0  0  0  0  0  0  0  0
   -1.3625   -6.4883   36.9175 H   0  0  0  0  0  0  0  0  0  0  0  0
    0.0639   -5.8973   38.8442 H   0  0  0  0  0  0  0  0  0  0  0  0
    2.4698   -6.4380   38.8163 H   0  0  0  0  0  0  0  0  0  0  0  0
    6.0540   -4.5259   33.8412 H   0  0  0  0  0  0  0  0  0  0  0  0
    4.9936   -3.4107   34.7338 H   0  0  0  0  0  0  0  0  0  0  0  0
    3.9615   -2.9391   32.9087 H   0  0  0  0  0  0  0  0  0  0  0  0
    2.5479   -4.1344   36.1572 H   0  0  0  0  0  0  0  0  0  0  0  0
    0.1169   -3.7439   36.0316 H   0  0  0  0  0  0  0  0  0  0  0  0
   -1.2481   -4.7887   34.2773 H   0  0  0  0  0  0  0  0  0  0  0  0
    3.0445   -5.1632   31.3017 H   0  0  0  0  0  0  0  0  0  0  0  0
  1  2  1  0
  2  3  1  0
  3  4  1  0
  4  5  2  0
  5  6  1  0
  6  7  2  0
  7  8  1  0
  8  9  2  0
  3 10  2  0
 10 11  1  0
 11 12  2  0
 12 13  1  0
 13 14  1  0
 14 15  1  0
 13 16  1  0
 16 17  2  0
 17 18  1  0
 18 19  2  0
 19 20  1  0
 20 21  2  0
 21 22  1  0
 21 23  1  0
 23 24  2  0
 24 25  1  0
 12  2  1  0
 25 16  1  0
  9  4  1  0
 25 20  1  0
  1 26  1  0
  1 27  1  0
  1 28  1  0
  5 29  1  0
  6 30  1  0
  7 31  1  0
  8 32  1  0
  9 33  1  0
 14 34  1  0
 14 35  1  0
 15 36  1  0
 17 37  1  0
 18 38  1  0
 19 39  1  0
 24 40  1  0
M  END
>  <Energy>  (665) 
110.44595983450075

>  <compound_id>  (665) 
4283

>  <target_id>  (665) 
1

>  <reference_id>  (665) 
188

>  <inspiration_ids>  (665) 
[149, 188]

>  <energy_score>  (665) 
32.17204926692642

>  <distance_score>  (665) 
2.1918291472915343

>  <path>  (665) 
/opt/xchem-fragalysis-2/maxwin/BulkDock/SCRATCH/505735/C4283-P188/C4283-P188.minimised.mol

>  <scratch_subdir>  (665) 
/opt/xchem-fragalysis-2/maxwin/BulkDock/SCRATCH/505735/C4283-P188

>  <fragmenstein_runtime>  (665) 
3.6660192012786865

>  <fragmenstein_outcome>  (665) 
too moved

>  <fragmenstein_mode>  (665) 
expansion

>  <fragmenstein_error>  (665) 


$$$$
C3759-P149
     RDKit          3D

 54 58  0  0  0  0  0  0  0  0999 V2000
    0.6899    0.1198   35.1277 C   0  0  0  0  0  0  0  0  0  0  0  0
    0.4106   -1.0045   34.2040 N   0  0  0  0  0  0  0  0  0  0  0  0
    1.5602   -0.3406   33.4005 C   0  0  0  0  0  0  0  0  0  0  0  0
    1.1761   -0.3695   31.9078 C   0  0  0  0  0  0  0  0  0  0  0  0
    2.0048   -0.9771   30.9549 C   0  0  0  0  0  0  0  0  0  0  0  0
    1.6295   -1.0133   29.6074 C   0  0  0  0  0  0  0  0  0  0  0  0
    0.4243   -0.4479   29.1973 C   0  0  0  0  0  0  0  0  0  0  0  0
   -0.4020    0.1727   30.1300 C   0  0  0  0  0  0  0  0  0  0  0  0
   -0.0255    0.2211   31.4746 C   0  0  0  0  0  0  0  0  0  0  0  0
    0.6639   -2.4499   34.3529 C   0  0  0  0  0  0  0  0  0  0  0  0
    1.2273   -3.0404   35.2024 O   0  0  0  0  0  0  0  0  0  0  0  0
    0.0216   -2.9276   33.1376 N   0  0  0  0  0  0  0  0  0  0  0  0
   -0.0366   -4.1748   32.5877 C   0  0  0  0  0  0  0  0  0  0  0  0
   -0.1213   -4.1447   31.1293 C   0  0  0  0  0  0  0  0  0  0  0  0
   -0.1779   -5.2613   30.3922 C   0  0  0  0  0  0  0  0  0  0  0  0
   -0.4184   -6.4889   31.0459 C   0  0  0  0  0  0  0  0  0  0  0  0
   -0.8540   -7.6449   30.5965 N   0  0  0  0  0  0  0  0  0  0  0  0
   -1.1462   -8.4240   31.6855 N   0  0  0  0  0  0  0  0  0  0  0  0
   -0.8212   -7.7444   32.7661 C   0  0  0  0  0  0  0  0  0  0  0  0
   -0.3407   -6.5022   32.4285 N   0  0  0  0  0  0  0  0  0  0  0  0
    0.0095   -5.3754   33.2267 C   0  0  0  0  0  0  0  0  0  0  0  0
    0.3171   -5.5865   34.5796 N   0  0  0  0  0  0  0  0  0  0  0  0
    1.2605   -6.5094   34.9220 C   0  0  0  0  0  0  0  0  0  0  0  0
    1.8545   -7.4048   34.1643 N   0  0  0  0  0  0  0  0  0  0  0  0
    2.7882   -8.0598   34.9120 N   0  0  0  0  0  0  0  0  0  0  0  0
    2.7524   -7.5695   36.1381 C   0  0  0  0  0  0  0  0  0  0  0  0
    3.6122   -7.9778   37.2443 C   0  0  0  0  0  0  0  0  0  0  0  0
    3.2503   -7.7965   38.5843 C   0  0  0  0  0  0  0  0  0  0  0  0
    4.0985   -8.2268   39.6095 C   0  0  0  0  0  0  0  0  0  0  0  0
    5.3121   -8.8423   39.3069 C   0  0  0  0  0  0  0  0  0  0  0  0
    5.6815   -9.0327   37.9792 C   0  0  0  0  0  0  0  0  0  0  0  0
    4.8356   -8.6046   36.9561 C   0  0  0  0  0  0  0  0  0  0  0  0
    1.7874   -6.5897   36.1804 N   0  0  0  0  0  0  0  0  0  0  0  0
    0.3404    1.0942   34.7564 H   0  0  0  0  0  0  0  0  0  0  0  0
    0.0352   -0.0859   35.9869 H   0  0  0  0  0  0  0  0  0  0  0  0
    1.6948    0.1077   35.5788 H   0  0  0  0  0  0  0  0  0  0  0  0
    2.4688   -0.9432   33.5499 H   0  0  0  0  0  0  0  0  0  0  0  0
    1.8350    0.7216   33.5435 H   0  0  0  0  0  0  0  0  0  0  0  0
    2.9459   -1.4354   31.2519 H   0  0  0  0  0  0  0  0  0  0  0  0
    2.2756   -1.4904   28.8741 H   0  0  0  0  0  0  0  0  0  0  0  0
    0.1274   -0.4906   28.1503 H   0  0  0  0  0  0  0  0  0  0  0  0
   -1.3391    0.6180   29.8016 H   0  0  0  0  0  0  0  0  0  0  0  0
   -0.6845    0.7073   32.1899 H   0  0  0  0  0  0  0  0  0  0  0  0
   -0.2918   -2.1337   32.5952 H   0  0  0  0  0  0  0  0  0  0  0  0
   -0.0451   -3.1902   30.6168 H   0  0  0  0  0  0  0  0  0  0  0  0
   -0.2041   -5.2084   29.3112 H   0  0  0  0  0  0  0  0  0  0  0  0
   -0.9359   -8.0809   33.7874 H   0  0  0  0  0  0  0  0  0  0  0  0
    0.4004   -4.6936   35.0772 H   0  0  0  0  0  0  0  0  0  0  0  0
    2.2968   -7.3516   38.8554 H   0  0  0  0  0  0  0  0  0  0  0  0
    3.8046   -8.0927   40.6479 H   0  0  0  0  0  0  0  0  0  0  0  0
    5.9651   -9.1804   40.1077 H   0  0  0  0  0  0  0  0  0  0  0  0
    6.6236   -9.5177   37.7378 H   0  0  0  0  0  0  0  0  0  0  0  0
    5.1345   -8.7688   35.9215 H   0  0  0  0  0  0  0  0  0  0  0  0
    1.5436   -6.0126   36.9686 H   0  0  0  0  0  0  0  0  0  0  0  0
  1  2  1  0
  2  3  1  0
  3  4  1  0
  4  5  2  0
  5  6  1  0
  6  7  2  0
  7  8  1  0
  8  9  2  0
  2 10  1  0
 10 11  2  0
 10 12  1  0
 12 13  1  0
 13 14  1  0
 14 15  2  0
 15 16  1  0
 16 17  2  0
 17 18  1  0
 18 19  2  0
 19 20  1  0
 20 21  1  0
 21 22  1  0
 22 23  1  0
 23 24  2  0
 24 25  1  0
 25 26  2  0
 26 27  1  0
 27 28  2  0
 28 29  1  0
 29 30  2  0
 30 31  1  0
 31 32  2  0
 26 33  1  0
  9  4  1  0
 21 13  2  0
 33 23  1  0
 20 16  1  0
 32 27  1  0
  1 34  1  0
  1 35  1  0
  1 36  1  0
  3 37  1  0
  3 38  1  0
  5 39  1  0
  6 40  1  0
  7 41  1  0
  8 42  1  0
  9 43  1  0
 12 44  1  0
 14 45  1  0
 15 46  1  0
 19 47  1  0
 22 48  1  0
 28 49  1  0
 29 50  1  0
 30 51  1  0
 31 52  1  0
 32 53  1  0
 33 54  1  0
M  END
>  <Energy>  (666) 
76.251023948467292

>  <compound_id>  (666) 
3759

>  <target_id>  (666) 
1

>  <reference_id>  (666) 
149

>  <inspiration_ids>  (666) 
[149, 196]

>  <energy_score>  (666) 
11.877225062870792

>  <distance_score>  (666) 
2.315134721671514

>  <path>  (666) 
/opt/xchem-fragalysis-2/maxwin/BulkDock/SCRATCH/505735/C3759-P149/C3759-P149.minimised.mol

>  <scratch_subdir>  (666) 
/opt/xchem-fragalysis-2/maxwin/BulkDock/SCRATCH/505735/C3759-P149

>  <fragmenstein_runtime>  (666) 
15.883279085159302

>  <fragmenstein_outcome>  (666) 
too moved

>  <fragmenstein_mode>  (666) 
expansion

>  <fragmenstein_error>  (666) 


$$$$
C3759-P196
     RDKit          3D

 54 58  0  0  0  0  0  0  0  0999 V2000
    2.3285   -0.0998   34.1210 C   0  0  0  0  0  0  0  0  0  0  0  0
    1.7656   -1.4426   33.8585 N   0  0  0  0  0  0  0  0  0  0  0  0
    0.4733   -0.6057   33.5916 C   0  0  0  0  0  0  0  0  0  0  0  0
    0.0619   -0.3327   32.1343 C   0  0  0  0  0  0  0  0  0  0  0  0
   -0.7434   -1.2534   31.4342 C   0  0  0  0  0  0  0  0  0  0  0  0
   -1.0936   -1.0419   30.0967 C   0  0  0  0  0  0  0  0  0  0  0  0
   -0.6589    0.1026   29.4380 C   0  0  0  0  0  0  0  0  0  0  0  0
    0.1167    1.0365   30.1184 C   0  0  0  0  0  0  0  0  0  0  0  0
    0.4632    0.8287   31.4584 C   0  0  0  0  0  0  0  0  0  0  0  0
    1.9993   -2.3711   32.7528 C   0  0  0  0  0  0  0  0  0  0  0  0
    2.6230   -2.2335   31.7643 O   0  0  0  0  0  0  0  0  0  0  0  0
    1.1461   -3.4890   33.1967 N   0  0  0  0  0  0  0  0  0  0  0  0
    0.7671   -4.6307   32.5540 C   0  0  0  0  0  0  0  0  0  0  0  0
    0.8723   -4.6509   31.1041 C   0  0  0  0  0  0  0  0  0  0  0  0
    0.3438   -5.6367   30.3687 C   0  0  0  0  0  0  0  0  0  0  0  0
   -0.3435   -6.6930   31.0027 C   0  0  0  0  0  0  0  0  0  0  0  0
   -1.0179   -7.7206   30.5353 N   0  0  0  0  0  0  0  0  0  0  0  0
   -1.4963   -8.4248   31.6095 N   0  0  0  0  0  0  0  0  0  0  0  0
   -1.0844   -7.8201   32.7025 C   0  0  0  0  0  0  0  0  0  0  0  0
   -0.3773   -6.6911   32.3882 N   0  0  0  0  0  0  0  0  0  0  0  0
    0.1923   -5.6805   33.1983 C   0  0  0  0  0  0  0  0  0  0  0  0
    0.2672   -5.8741   34.5908 N   0  0  0  0  0  0  0  0  0  0  0  0
    1.3200   -6.6300   35.0250 C   0  0  0  0  0  0  0  0  0  0  0  0
    2.2573   -7.2046   34.3034 N   0  0  0  0  0  0  0  0  0  0  0  0
    3.1212   -7.8424   35.1422 N   0  0  0  0  0  0  0  0  0  0  0  0
    2.7300   -7.6218   36.3837 C   0  0  0  0  0  0  0  0  0  0  0  0
    3.4372   -8.0583   37.5830 C   0  0  0  0  0  0  0  0  0  0  0  0
    2.7988   -8.2240   38.8171 C   0  0  0  0  0  0  0  0  0  0  0  0
    3.5159   -8.6846   39.9256 C   0  0  0  0  0  0  0  0  0  0  0  0
    4.8723   -8.9852   39.8118 C   0  0  0  0  0  0  0  0  0  0  0  0
    5.5181   -8.8271   38.5902 C   0  0  0  0  0  0  0  0  0  0  0  0
    4.8040   -8.3673   37.4844 C   0  0  0  0  0  0  0  0  0  0  0  0
    1.5519   -6.9104   36.3426 N   0  0  0  0  0  0  0  0  0  0  0  0
    1.9803    0.3683   35.0526 H   0  0  0  0  0  0  0  0  0  0  0  0
    3.3853   -0.3184   34.3367 H   0  0  0  0  0  0  0  0  0  0  0  0
    2.4119    0.5611   33.2536 H   0  0  0  0  0  0  0  0  0  0  0  0
    0.2474    0.2666   34.2319 H   0  0  0  0  0  0  0  0  0  0  0  0
   -0.3008   -1.3000   33.9604 H   0  0  0  0  0  0  0  0  0  0  0  0
   -1.0869   -2.1638   31.9194 H   0  0  0  0  0  0  0  0  0  0  0  0
   -1.6864   -1.7798   29.5605 H   0  0  0  0  0  0  0  0  0  0  0  0
   -0.9137    0.2653   28.3928 H   0  0  0  0  0  0  0  0  0  0  0  0
    0.4592    1.9288   29.5976 H   0  0  0  0  0  0  0  0  0  0  0  0
    1.0639    1.5891   31.9492 H   0  0  0  0  0  0  0  0  0  0  0  0
    0.8279   -3.3100   34.1389 H   0  0  0  0  0  0  0  0  0  0  0  0
    1.3816   -3.8417   30.5887 H   0  0  0  0  0  0  0  0  0  0  0  0
    0.4325   -5.6041   29.2964 H   0  0  0  0  0  0  0  0  0  0  0  0
   -1.2777   -8.1427   33.7140 H   0  0  0  0  0  0  0  0  0  0  0  0
   -0.6329   -6.1440   34.9844 H   0  0  0  0  0  0  0  0  0  0  0  0
    1.7336   -8.0420   38.9316 H   0  0  0  0  0  0  0  0  0  0  0  0
    3.0100   -8.8233   40.8782 H   0  0  0  0  0  0  0  0  0  0  0  0
    5.4238   -9.3490   40.6755 H   0  0  0  0  0  0  0  0  0  0  0  0
    6.5746   -9.0640   38.4955 H   0  0  0  0  0  0  0  0  0  0  0  0
    5.3221   -8.2562   36.5326 H   0  0  0  0  0  0  0  0  0  0  0  0
    1.0215   -6.5827   37.1329 H   0  0  0  0  0  0  0  0  0  0  0  0
  1  2  1  0
  2  3  1  0
  3  4  1  0
  4  5  2  0
  5  6  1  0
  6  7  2  0
  7  8  1  0
  8  9  2  0
  2 10  1  0
 10 11  2  0
 10 12  1  0
 12 13  1  0
 13 14  1  0
 14 15  2  0
 15 16  1  0
 16 17  2  0
 17 18  1  0
 18 19  2  0
 19 20  1  0
 20 21  1  0
 21 22  1  0
 22 23  1  0
 23 24  2  0
 24 25  1  0
 25 26  2  0
 26 27  1  0
 27 28  2  0
 28 29  1  0
 29 30  2  0
 30 31  1  0
 31 32  2  0
 26 33  1  0
  9  4  1  0
 21 13  2  0
 33 23  1  0
 20 16  1  0
 32 27  1  0
  1 34  1  0
  1 35  1  0
  1 36  1  0
  3 37  1  0
  3 38  1  0
  5 39  1  0
  6 40  1  0
  7 41  1  0
  8 42  1  0
  9 43  1  0
 12 44  1  0
 14 45  1  0
 15 46  1  0
 19 47  1  0
 22 48  1  0
 28 49  1  0
 29 50  1  0
 30 51  1  0
 31 52  1  0
 32 53  1  0
 33 54  1  0
M  END
>  <Energy>  (667) 
98.338387954922098

>  <compound_id>  (667) 
3759

>  <target_id>  (667) 
1

>  <reference_id>  (667) 
196

>  <inspiration_ids>  (667) 
[149, 196]

>  <energy_score>  (667) 
33.96458906932618

>  <distance_score>  (667) 
1.8258230140146605

>  <path>  (667) 
/opt/xchem-fragalysis-2/maxwin/BulkDock/SCRATCH/505735/C3759-P196/C3759-P196.minimised.mol

>  <scratch_subdir>  (667) 
/opt/xchem-fragalysis-2/maxwin/BulkDock/SCRATCH/505735/C3759-P196

>  <fragmenstein_runtime>  (667) 
14.00559139251709

>  <fragmenstein_outcome>  (667) 
too moved

>  <fragmenstein_mode>  (667) 
expansion

>  <fragmenstein_error>  (667) 


$$$$
C4287-P149
     RDKit          3D

 57 61  0  0  0  0  0  0  0  0999 V2000
   -1.4382   -0.5438   34.1458 C   0  0  0  0  0  0  0  0  0  0  0  0
   -0.8346   -1.0983   32.8792 N   0  0  0  0  0  0  0  0  0  0  0  0
   -1.0343    0.3112   32.4182 C   0  0  0  0  0  0  0  0  0  0  0  0
   -0.3166    0.4271   31.0664 C   0  0  0  0  0  0  0  0  0  0  0  0
    0.9361    1.0504   30.9731 C   0  0  0  0  0  0  0  0  0  0  0  0
    1.5999    1.1293   29.7469 C   0  0  0  0  0  0  0  0  0  0  0  0
    1.0258    0.5765   28.6039 C   0  0  0  0  0  0  0  0  0  0  0  0
   -0.2133   -0.0532   28.6833 C   0  0  0  0  0  0  0  0  0  0  0  0
   -0.8795   -0.1255   29.9069 C   0  0  0  0  0  0  0  0  0  0  0  0
   -1.5175   -2.3217   32.4965 C   0  0  0  0  0  0  0  0  0  0  0  0
   -2.4470   -2.4852   31.8008 O   0  0  0  0  0  0  0  0  0  0  0  0
   -0.6603   -3.2708   33.1429 N   0  0  0  0  0  0  0  0  0  0  0  0
   -0.6158   -4.7103   33.0607 C   0  0  0  0  0  0  0  0  0  0  0  0
    0.1500   -5.8250   34.4456 N   0  0  0  0  0  0  0  0  0  0  0  0
    1.2536   -6.7630   35.0496 C   0  0  0  0  0  0  0  0  0  0  0  0
    2.5074   -7.0565   34.7326 N   0  0  0  0  0  0  0  0  0  0  0  0
    3.0078   -7.6943   35.8537 C   0  0  0  0  0  0  0  0  0  0  0  0
    4.4062   -8.0664   36.0382 C   0  0  0  0  0  0  0  0  0  0  0  0
    4.7953   -8.8166   37.1630 C   0  0  0  0  0  0  0  0  0  0  0  0
    6.1290   -9.1748   37.3611 C   0  0  0  0  0  0  0  0  0  0  0  0
    7.0914   -8.7857   36.4349 C   0  0  0  0  0  0  0  0  0  0  0  0
    6.7220   -8.0327   35.3204 C   0  0  0  0  0  0  0  0  0  0  0  0
    5.3872   -7.6680   35.1261 C   0  0  0  0  0  0  0  0  0  0  0  0
    2.0848   -7.9360   36.7873 N   0  0  0  0  0  0  0  0  0  0  0  0
    0.9900   -7.4077   36.2470 N   0  0  0  0  0  0  0  0  0  0  0  0
   -0.9361   -5.8476   35.0394 C   0  0  0  0  0  0  0  0  0  0  0  0
    0.0656   -4.6426   35.2408 C   0  0  0  0  0  0  0  0  0  0  0  0
    1.5187   -4.4698   34.0260 C   0  0  0  0  0  0  0  0  0  0  0  0
    1.6032   -5.4448   32.8596 C   0  0  0  0  0  0  0  0  0  0  0  0
    0.4328   -6.7422   32.5996 C   0  0  0  0  0  0  0  0  0  0  0  0
    0.0049   -7.4392   31.5612 N   0  0  0  0  0  0  0  0  0  0  0  0
   -1.1482   -8.1660   31.9154 N   0  0  0  0  0  0  0  0  0  0  0  0
   -1.5814   -7.8953   33.1371 C   0  0  0  0  0  0  0  0  0  0  0  0
   -0.8517   -6.9047   33.7177 N   0  0  0  0  0  0  0  0  0  0  0  0
   -1.5173   -1.3971   34.8368 H   0  0  0  0  0  0  0  0  0  0  0  0
   -2.4827   -0.2055   34.0547 H   0  0  0  0  0  0  0  0  0  0  0  0
   -0.7798    0.1510   34.6881 H   0  0  0  0  0  0  0  0  0  0  0  0
   -2.0935    0.5130   32.2004 H   0  0  0  0  0  0  0  0  0  0  0  0
   -0.5841    1.1057   33.0350 H   0  0  0  0  0  0  0  0  0  0  0  0
    1.4097    1.4776   31.8532 H   0  0  0  0  0  0  0  0  0  0  0  0
    2.5677    1.6194   29.6820 H   0  0  0  0  0  0  0  0  0  0  0  0
    1.5461    0.6314   27.6522 H   0  0  0  0  0  0  0  0  0  0  0  0
   -0.6622   -0.4978   27.7966 H   0  0  0  0  0  0  0  0  0  0  0  0
   -1.8374   -0.6346   29.9506 H   0  0  0  0  0  0  0  0  0  0  0  0
    0.0905   -2.7779   33.5977 H   0  0  0  0  0  0  0  0  0  0  0  0
   -0.3491   -4.9103   32.0086 H   0  0  0  0  0  0  0  0  0  0  0  0
   -1.6841   -4.9567   33.0767 H   0  0  0  0  0  0  0  0  0  0  0  0
    4.0538   -9.1277   37.8977 H   0  0  0  0  0  0  0  0  0  0  0  0
    6.4117   -9.7545   38.2356 H   0  0  0  0  0  0  0  0  0  0  0  0
    8.1322   -9.0619   36.5822 H   0  0  0  0  0  0  0  0  0  0  0  0
    7.4772   -7.7215   34.6027 H   0  0  0  0  0  0  0  0  0  0  0  0
    5.1244   -7.0587   34.2671 H   0  0  0  0  0  0  0  0  0  0  0  0
    0.1197   -7.4592   36.7612 H   0  0  0  0  0  0  0  0  0  0  0  0
   -0.0198   -3.8550   35.9875 H   0  0  0  0  0  0  0  0  0  0  0  0
    2.2087   -3.6638   34.2482 H   0  0  0  0  0  0  0  0  0  0  0  0
    2.3731   -5.3661   32.1077 H   0  0  0  0  0  0  0  0  0  0  0  0
   -2.4178   -8.3667   33.6261 H   0  0  0  0  0  0  0  0  0  0  0  0
  1  2  1  0
  2  3  1  0
  3  4  1  0
  4  5  2  0
  5  6  1  0
  6  7  2  0
  7  8  1  0
  8  9  2  0
  2 10  1  0
 10 11  2  0
 10 12  1  0
 12 13  1  0
 13 14  1  0
 14 15  1  0
 15 16  2  0
 16 17  1  0
 17 18  1  0
 18 19  2  0
 19 20  1  0
 20 21  2  0
 21 22  1  0
 22 23  2  0
 17 24  2  0
 24 25  1  0
 14 26  1  0
 26 27  2  0
 27 28  1  0
 28 29  2  0
 29 30  1  0
 30 31  2  0
 31 32  1  0
 32 33  2  0
 33 34  1  0
  9  4  1  0
 25 15  1  0
 34 26  1  0
 23 18  1  0
 34 30  1  0
  1 35  1  0
  1 36  1  0
  1 37  1  0
  3 38  1  0
  3 39  1  0
  5 40  1  0
  6 41  1  0
  7 42  1  0
  8 43  1  0
  9 44  1  0
 12 45  1  0
 13 46  1  0
 13 47  1  0
 19 48  1  0
 20 49  1  0
 21 50  1  0
 22 51  1  0
 23 52  1  0
 25 53  1  0
 27 54  1  0
 28 55  1  0
 29 56  1  0
 33 57  1  0
M  END
>  <Energy>  (668) 
842.28329618465818

>  <compound_id>  (668) 
4287

>  <target_id>  (668) 
1

>  <reference_id>  (668) 
149

>  <inspiration_ids>  (668) 
[149, 197]

>  <energy_score>  (668) 
822.8283361050393

>  <distance_score>  (668) 
2.0702688578846367

>  <path>  (668) 
/opt/xchem-fragalysis-2/maxwin/BulkDock/SCRATCH/505735/C4287-P149/C4287-P149.minimised.mol

>  <scratch_subdir>  (668) 
/opt/xchem-fragalysis-2/maxwin/BulkDock/SCRATCH/505735/C4287-P149

>  <fragmenstein_runtime>  (668) 
25.056579113006592

>  <fragmenstein_outcome>  (668) 
too moved

>  <fragmenstein_mode>  (668) 
expansion

>  <fragmenstein_error>  (668) 


$$$$
C4287-P197
     RDKit          3D

 57 61  0  0  0  0  0  0  0  0999 V2000
   -1.6061   -0.8160   32.3328 C   0  0  0  0  0  0  0  0  0  0  0  0
   -0.7447   -1.9717   31.8880 N   0  0  0  0  0  0  0  0  0  0  0  0
   -0.9124   -1.2992   30.5404 C   0  0  0  0  0  0  0  0  0  0  0  0
    0.1369   -0.2495   30.2151 C   0  0  0  0  0  0  0  0  0  0  0  0
    1.4834   -0.4559   30.5499 C   0  0  0  0  0  0  0  0  0  0  0  0
    2.4384    0.5288   30.2959 C   0  0  0  0  0  0  0  0  0  0  0  0
    2.0566    1.7310   29.7067 C   0  0  0  0  0  0  0  0  0  0  0  0
    0.7249    1.9393   29.3542 C   0  0  0  0  0  0  0  0  0  0  0  0
   -0.2284    0.9460   29.5845 C   0  0  0  0  0  0  0  0  0  0  0  0
   -1.2883   -3.2213   32.3938 C   0  0  0  0  0  0  0  0  0  0  0  0
   -2.0572   -3.9634   31.9106 O   0  0  0  0  0  0  0  0  0  0  0  0
   -0.5280   -3.3242   33.6243 N   0  0  0  0  0  0  0  0  0  0  0  0
   -0.4136   -4.3956   34.5680 C   0  0  0  0  0  0  0  0  0  0  0  0
    0.7178   -5.2711   34.2241 N   0  0  0  0  0  0  0  0  0  0  0  0
    1.3259   -6.0146   35.2005 C   0  0  0  0  0  0  0  0  0  0  0  0
    2.4024   -6.7714   35.1143 N   0  0  0  0  0  0  0  0  0  0  0  0
    2.6235   -7.2002   36.4095 C   0  0  0  0  0  0  0  0  0  0  0  0
    3.7845   -7.9900   36.8030 C   0  0  0  0  0  0  0  0  0  0  0  0
    3.8388   -8.6060   38.0632 C   0  0  0  0  0  0  0  0  0  0  0  0
    4.9431   -9.3770   38.4325 C   0  0  0  0  0  0  0  0  0  0  0  0
    6.0064   -9.5372   37.5473 C   0  0  0  0  0  0  0  0  0  0  0  0
    5.9703   -8.9220   36.2972 C   0  0  0  0  0  0  0  0  0  0  0  0
    4.8670   -8.1483   35.9292 C   0  0  0  0  0  0  0  0  0  0  0  0
    1.6726   -6.8133   37.2682 N   0  0  0  0  0  0  0  0  0  0  0  0
    0.8722   -6.0825   36.4915 N   0  0  0  0  0  0  0  0  0  0  0  0
    1.0183   -5.4870   32.8746 C   0  0  0  0  0  0  0  0  0  0  0  0
    1.9623   -4.7701   32.2251 C   0  0  0  0  0  0  0  0  0  0  0  0
    2.0964   -4.8787   30.7866 C   0  0  0  0  0  0  0  0  0  0  0  0
    1.3067   -5.6989   30.0719 C   0  0  0  0  0  0  0  0  0  0  0  0
    0.3513   -6.5171   30.7337 C   0  0  0  0  0  0  0  0  0  0  0  0
   -0.4829   -7.4436   30.3072 N   0  0  0  0  0  0  0  0  0  0  0  0
   -1.1834   -7.9132   31.3956 N   0  0  0  0  0  0  0  0  0  0  0  0
   -0.7485   -7.2681   32.4569 C   0  0  0  0  0  0  0  0  0  0  0  0
    0.2339   -6.3772   32.1091 N   0  0  0  0  0  0  0  0  0  0  0  0
   -2.6584   -0.8994   32.0173 H   0  0  0  0  0  0  0  0  0  0  0  0
   -1.1780    0.1877   32.2147 H   0  0  0  0  0  0  0  0  0  0  0  0
   -1.6784   -0.9179   33.4267 H   0  0  0  0  0  0  0  0  0  0  0  0
   -0.6732   -2.1257   29.8503 H   0  0  0  0  0  0  0  0  0  0  0  0
   -1.9362   -1.0607   30.2036 H   0  0  0  0  0  0  0  0  0  0  0  0
    1.7918   -1.3871   31.0198 H   0  0  0  0  0  0  0  0  0  0  0  0
    3.4788    0.3606   30.5613 H   0  0  0  0  0  0  0  0  0  0  0  0
    2.7972    2.5031   29.5144 H   0  0  0  0  0  0  0  0  0  0  0  0
    0.4292    2.8781   28.8940 H   0  0  0  0  0  0  0  0  0  0  0  0
   -1.2578    1.1183   29.2753 H   0  0  0  0  0  0  0  0  0  0  0  0
    0.1018   -2.5382   33.6899 H   0  0  0  0  0  0  0  0  0  0  0  0
   -1.3223   -4.9922   34.5674 H   0  0  0  0  0  0  0  0  0  0  0  0
   -0.2838   -3.9234   35.5471 H   0  0  0  0  0  0  0  0  0  0  0  0
    3.0085   -8.5059   38.7616 H   0  0  0  0  0  0  0  0  0  0  0  0
    4.9656   -9.8561   39.4083 H   0  0  0  0  0  0  0  0  0  0  0  0
    6.8648  -10.1397   37.8340 H   0  0  0  0  0  0  0  0  0  0  0  0
    6.8045   -9.0404   35.6104 H   0  0  0  0  0  0  0  0  0  0  0  0
    4.8634   -7.6575   34.9610 H   0  0  0  0  0  0  0  0  0  0  0  0
    0.0532   -5.6623   36.9102 H   0  0  0  0  0  0  0  0  0  0  0  0
    2.5769   -4.0435   32.7463 H   0  0  0  0  0  0  0  0  0  0  0  0
    2.8281   -4.2448   30.2938 H   0  0  0  0  0  0  0  0  0  0  0  0
    1.4001   -5.7481   28.9963 H   0  0  0  0  0  0  0  0  0  0  0  0
   -1.0876   -7.4141   33.4706 H   0  0  0  0  0  0  0  0  0  0  0  0
  1  2  1  0
  2  3  1  0
  3  4  1  0
  4  5  2  0
  5  6  1  0
  6  7  2  0
  7  8  1  0
  8  9  2  0
  2 10  1  0
 10 11  2  0
 10 12  1  0
 12 13  1  0
 13 14  1  0
 14 15  1  0
 15 16  2  0
 16 17  1  0
 17 18  1  0
 18 19  2  0
 19 20  1  0
 20 21  2  0
 21 22  1  0
 22 23  2  0
 17 24  2  0
 24 25  1  0
 14 26  1  0
 26 27  2  0
 27 28  1  0
 28 29  2  0
 29 30  1  0
 30 31  2  0
 31 32  1  0
 32 33  2  0
 33 34  1  0
  9  4  1  0
 25 15  1  0
 34 26  1  0
 23 18  1  0
 34 30  1  0
  1 35  1  0
  1 36  1  0
  1 37  1  0
  3 38  1  0
  3 39  1  0
  5 40  1  0
  6 41  1  0
  7 42  1  0
  8 43  1  0
  9 44  1  0
 12 45  1  0
 13 46  1  0
 13 47  1  0
 19 48  1  0
 20 49  1  0
 21 50  1  0
 22 51  1  0
 23 52  1  0
 25 53  1  0
 27 54  1  0
 28 55  1  0
 29 56  1  0
 33 57  1  0
M  END
>  <Energy>  (669) 
60.101604058354617

>  <compound_id>  (669) 
4287

>  <target_id>  (669) 
1

>  <reference_id>  (669) 
197

>  <inspiration_ids>  (669) 
[149, 197]

>  <energy_score>  (669) 
40.64664397872923

>  <distance_score>  (669) 
1.726327835554348

>  <path>  (669) 
/opt/xchem-fragalysis-2/maxwin/BulkDock/SCRATCH/505735/C4287-P197/C4287-P197.minimised.mol

>  <scratch_subdir>  (669) 
/opt/xchem-fragalysis-2/maxwin/BulkDock/SCRATCH/505735/C4287-P197

>  <fragmenstein_runtime>  (669) 
15.095618486404419

>  <fragmenstein_outcome>  (669) 
too moved

>  <fragmenstein_mode>  (669) 
expansion

>  <fragmenstein_error>  (669) 


$$$$
C4288-P149
     RDKit          3D

 59 63  0  0  0  0  0  0  0  0999 V2000
    0.5091    1.3941   30.9972 C   0  0  0  0  0  0  0  0  0  0  0  0
   -0.0508    0.3111   31.7367 O   0  0  0  0  0  0  0  0  0  0  0  0
   -0.0193   -0.9233   30.9989 C   0  0  0  0  0  0  0  0  0  0  0  0
    1.3653   -1.5733   31.1351 C   0  0  0  0  0  0  0  0  0  0  0  0
    1.3820   -2.7176   32.2004 C   0  0  0  0  0  0  0  0  0  0  0  0
    0.4366   -3.9246   31.8577 C   0  0  0  0  0  0  0  0  0  0  0  0
    1.2231   -4.8410   30.9015 C   0  0  0  0  0  0  0  0  0  0  0  0
    0.3568   -5.9299   30.3081 C   0  0  0  0  0  0  0  0  0  0  0  0
   -0.4343   -6.6398   31.3242 C   0  0  0  0  0  0  0  0  0  0  0  0
   -1.1438   -7.7298   31.1404 N   0  0  0  0  0  0  0  0  0  0  0  0
   -1.6836   -8.0686   32.3489 N   0  0  0  0  0  0  0  0  0  0  0  0
   -1.2959   -7.1848   33.2436 C   0  0  0  0  0  0  0  0  0  0  0  0
   -1.5125   -7.2628   34.5754 N   0  0  0  0  0  0  0  0  0  0  0  0
   -0.5849   -6.1905   32.6138 N   0  0  0  0  0  0  0  0  0  0  0  0
   -0.0873   -4.8791   33.0977 C   0  0  0  0  0  0  0  0  0  0  0  0
    0.8425   -4.8993   34.2581 N   0  0  0  0  0  0  0  0  0  0  0  0
    1.5937   -5.9851   34.5476 C   0  0  0  0  0  0  0  0  0  0  0  0
    1.8381   -7.0352   33.8058 N   0  0  0  0  0  0  0  0  0  0  0  0
    2.6329   -7.8939   34.5069 N   0  0  0  0  0  0  0  0  0  0  0  0
    2.8989   -7.3555   35.6789 C   0  0  0  0  0  0  0  0  0  0  0  0
    3.8032   -7.9244   36.6699 C   0  0  0  0  0  0  0  0  0  0  0  0
    3.6790   -7.6879   38.0424 C   0  0  0  0  0  0  0  0  0  0  0  0
    4.5603   -8.2978   38.9416 C   0  0  0  0  0  0  0  0  0  0  0  0
    5.5664   -9.1450   38.4784 C   0  0  0  0  0  0  0  0  0  0  0  0
    5.6982   -9.3865   37.1159 C   0  0  0  0  0  0  0  0  0  0  0  0
    4.8239   -8.7790   36.2192 C   0  0  0  0  0  0  0  0  0  0  0  0
    2.2249   -6.1584   35.7559 N   0  0  0  0  0  0  0  0  0  0  0  0
   -0.7847   -3.3090   31.1182 C   0  0  0  0  0  0  0  0  0  0  0  0
   -1.0322   -1.8861   31.6222 C   0  0  0  0  0  0  0  0  0  0  0  0
   -2.3640   -1.5495   31.3226 O   0  0  0  0  0  0  0  0  0  0  0  0
   -3.1940   -1.9698   32.3869 C   0  0  0  0  0  0  0  0  0  0  0  0
    1.5603    1.2116   30.7589 H   0  0  0  0  0  0  0  0  0  0  0  0
   -0.0575    1.5616   30.0763 H   0  0  0  0  0  0  0  0  0  0  0  0
    0.4485    2.2947   31.6141 H   0  0  0  0  0  0  0  0  0  0  0  0
   -0.2726   -0.7239   29.9502 H   0  0  0  0  0  0  0  0  0  0  0  0
    2.1306   -0.8416   31.4141 H   0  0  0  0  0  0  0  0  0  0  0  0
    1.6636   -1.9906   30.1665 H   0  0  0  0  0  0  0  0  0  0  0  0
    1.1214   -2.2978   33.1804 H   0  0  0  0  0  0  0  0  0  0  0  0
    2.4139   -3.0763   32.3086 H   0  0  0  0  0  0  0  0  0  0  0  0
    1.6780   -4.2744   30.0806 H   0  0  0  0  0  0  0  0  0  0  0  0
    2.0492   -5.2872   31.4626 H   0  0  0  0  0  0  0  0  0  0  0  0
    0.9983   -6.6354   29.7904 H   0  0  0  0  0  0  0  0  0  0  0  0
   -0.3119   -5.5058   29.5556 H   0  0  0  0  0  0  0  0  0  0  0  0
   -0.7163   -7.0042   35.1491 H   0  0  0  0  0  0  0  0  0  0  0  0
   -1.7456   -8.2351   34.8246 H   0  0  0  0  0  0  0  0  0  0  0  0
   -0.9977   -4.3982   33.4802 H   0  0  0  0  0  0  0  0  0  0  0  0
    0.6098   -4.2166   34.9724 H   0  0  0  0  0  0  0  0  0  0  0  0
    2.8845   -7.0612   38.4369 H   0  0  0  0  0  0  0  0  0  0  0  0
    4.4523   -8.1227   40.0096 H   0  0  0  0  0  0  0  0  0  0  0  0
    6.2428   -9.6215   39.1840 H   0  0  0  0  0  0  0  0  0  0  0  0
    6.4770  -10.0505   36.7500 H   0  0  0  0  0  0  0  0  0  0  0  0
    4.9357   -8.9875   35.1554 H   0  0  0  0  0  0  0  0  0  0  0  0
    2.2543   -5.5038   36.5199 H   0  0  0  0  0  0  0  0  0  0  0  0
   -0.6286   -3.2738   30.0313 H   0  0  0  0  0  0  0  0  0  0  0  0
   -1.6688   -3.9321   31.2578 H   0  0  0  0  0  0  0  0  0  0  0  0
   -0.9188   -1.8262   32.7149 H   0  0  0  0  0  0  0  0  0  0  0  0
   -3.2002   -1.2018   33.1672 H   0  0  0  0  0  0  0  0  0  0  0  0
   -2.8769   -2.9158   32.8236 H   0  0  0  0  0  0  0  0  0  0  0  0
   -4.2168   -2.0956   32.0267 H   0  0  0  0  0  0  0  0  0  0  0  0
  1  2  1  0
  2  3  1  0
  3  4  1  0
  4  5  1  0
  5  6  1  0
  6  7  1  0
  7  8  1  0
  8  9  1  0
  9 10  2  0
 10 11  1  0
 11 12  2  0
 12 13  1  0
 12 14  1  0
 14 15  1  0
 15 16  1  0
 16 17  1  0
 17 18  2  0
 18 19  1  0
 19 20  2  0
 20 21  1  0
 21 22  2  0
 22 23  1  0
 23 24  2  0
 24 25  1  0
 25 26  2  0
 20 27  1  0
  6 28  1  0
 28 29  1  0
 29 30  1  0
 30 31  1  0
 29  3  1  0
 15  6  1  0
 27 17  1  0
 14  9  1  0
 26 21  1  0
  1 32  1  0
  1 33  1  0
  1 34  1  0
  3 35  1  0
  4 36  1  0
  4 37  1  0
  5 38  1  0
  5 39  1  0
  7 40  1  0
  7 41  1  0
  8 42  1  0
  8 43  1  0
 13 44  1  0
 13 45  1  0
 15 46  1  0
 16 47  1  0
 22 48  1  0
 23 49  1  0
 24 50  1  0
 25 51  1  0
 26 52  1  0
 27 53  1  0
 28 54  1  0
 28 55  1  0
 29 56  1  0
 31 57  1  0
 31 58  1  0
 31 59  1  0
M  END
>  <Energy>  (670) 
63.103100031261086

>  <compound_id>  (670) 
4288

>  <target_id>  (670) 
1

>  <reference_id>  (670) 
149

>  <inspiration_ids>  (670) 
[149, 198]

>  <energy_score>  (670) 
-56.72589524066632

>  <distance_score>  (670) 
2.702385222434819

>  <path>  (670) 
/opt/xchem-fragalysis-2/maxwin/BulkDock/SCRATCH/505735/C4288-P149/C4288-P149.minimised.mol

>  <scratch_subdir>  (670) 
/opt/xchem-fragalysis-2/maxwin/BulkDock/SCRATCH/505735/C4288-P149

>  <fragmenstein_runtime>  (670) 
4.14310097694397

>  <fragmenstein_outcome>  (670) 
too moved

>  <fragmenstein_mode>  (670) 
expansion

>  <fragmenstein_error>  (670) 


$$$$
C4288-P198
     RDKit          3D

 59 63  0  0  0  0  0  0  0  0999 V2000
    0.3895    1.3098   30.6645 C   0  0  0  0  0  0  0  0  0  0  0  0
   -0.0655    0.2193   31.4617 O   0  0  0  0  0  0  0  0  0  0  0  0
   -0.0257   -1.0267   30.7449 C   0  0  0  0  0  0  0  0  0  0  0  0
    1.3760   -1.6458   30.8647 C   0  0  0  0  0  0  0  0  0  0  0  0
    1.4475   -2.7619   31.9608 C   0  0  0  0  0  0  0  0  0  0  0  0
    0.5142   -3.9989   31.6864 C   0  0  0  0  0  0  0  0  0  0  0  0
    1.2947   -4.9644   30.7598 C   0  0  0  0  0  0  0  0  0  0  0  0
    0.4098   -6.0722   30.2211 C   0  0  0  0  0  0  0  0  0  0  0  0
   -0.3870   -6.7181   31.2745 C   0  0  0  0  0  0  0  0  0  0  0  0
   -1.1369   -7.7873   31.1390 N   0  0  0  0  0  0  0  0  0  0  0  0
   -1.6570   -8.0705   32.3689 N   0  0  0  0  0  0  0  0  0  0  0  0
   -1.2275   -7.1690   33.2240 C   0  0  0  0  0  0  0  0  0  0  0  0
   -1.4113   -7.2085   34.5625 N   0  0  0  0  0  0  0  0  0  0  0  0
   -0.5081   -6.2160   32.5480 N   0  0  0  0  0  0  0  0  0  0  0  0
    0.0086   -4.8935   32.9739 C   0  0  0  0  0  0  0  0  0  0  0  0
    0.9493   -4.8727   34.1268 N   0  0  0  0  0  0  0  0  0  0  0  0
    1.6881   -5.9508   34.4704 C   0  0  0  0  0  0  0  0  0  0  0  0
    1.9097   -7.0437   33.7858 N   0  0  0  0  0  0  0  0  0  0  0  0
    2.6915   -7.8770   34.5291 N   0  0  0  0  0  0  0  0  0  0  0  0
    2.9759   -7.2814   35.6675 C   0  0  0  0  0  0  0  0  0  0  0  0
    3.8706   -7.8253   36.6790 C   0  0  0  0  0  0  0  0  0  0  0  0
    3.6992   -7.6028   38.0478 C   0  0  0  0  0  0  0  0  0  0  0  0
    4.5552   -8.2167   38.9681 C   0  0  0  0  0  0  0  0  0  0  0  0
    5.5828   -9.0514   38.5292 C   0  0  0  0  0  0  0  0  0  0  0  0
    5.7634   -9.2755   37.1696 C   0  0  0  0  0  0  0  0  0  0  0  0
    4.9147   -8.6644   36.2517 C   0  0  0  0  0  0  0  0  0  0  0  0
    2.3269   -6.0686   35.6833 N   0  0  0  0  0  0  0  0  0  0  0  0
   -0.7330   -3.4255   30.9440 C   0  0  0  0  0  0  0  0  0  0  0  0
   -1.0004   -1.9943   31.4134 C   0  0  0  0  0  0  0  0  0  0  0  0
   -2.3530   -1.6969   31.1506 O   0  0  0  0  0  0  0  0  0  0  0  0
   -3.1068   -2.0261   32.3013 C   0  0  0  0  0  0  0  0  0  0  0  0
    1.4134    1.1467   30.3173 H   0  0  0  0  0  0  0  0  0  0  0  0
   -0.2768    1.4579   29.8092 H   0  0  0  0  0  0  0  0  0  0  0  0
    0.3726    2.2128   31.2805 H   0  0  0  0  0  0  0  0  0  0  0  0
   -0.3067   -0.8558   29.6982 H   0  0  0  0  0  0  0  0  0  0  0  0
    2.1305   -0.8875   31.0998 H   0  0  0  0  0  0  0  0  0  0  0  0
    1.6569   -2.0881   29.9017 H   0  0  0  0  0  0  0  0  0  0  0  0
    1.2105   -2.3183   32.9361 H   0  0  0  0  0  0  0  0  0  0  0  0
    2.4885   -3.1001   32.0448 H   0  0  0  0  0  0  0  0  0  0  0  0
    1.7325   -4.4275   29.9096 H   0  0  0  0  0  0  0  0  0  0  0  0
    2.1364   -5.3993   31.3141 H   0  0  0  0  0  0  0  0  0  0  0  0
    1.0204   -6.8153   29.7035 H   0  0  0  0  0  0  0  0  0  0  0  0
   -0.2793   -5.6531   29.4865 H   0  0  0  0  0  0  0  0  0  0  0  0
   -0.6228   -6.8763   35.1074 H   0  0  0  0  0  0  0  0  0  0  0  0
   -1.5925   -8.1829   34.8339 H   0  0  0  0  0  0  0  0  0  0  0  0
   -0.8920   -4.3906   33.3500 H   0  0  0  0  0  0  0  0  0  0  0  0
    0.7683   -4.1215   34.7849 H   0  0  0  0  0  0  0  0  0  0  0  0
    2.8828   -6.9925   38.4232 H   0  0  0  0  0  0  0  0  0  0  0  0
    4.4070   -8.0603   40.0345 H   0  0  0  0  0  0  0  0  0  0  0  0
    6.2361   -9.5343   39.2521 H   0  0  0  0  0  0  0  0  0  0  0  0
    6.5581   -9.9324   36.8252 H   0  0  0  0  0  0  0  0  0  0  0  0
    5.0611   -8.8645   35.1910 H   0  0  0  0  0  0  0  0  0  0  0  0
    2.3757   -5.3741   36.4107 H   0  0  0  0  0  0  0  0  0  0  0  0
   -0.5877   -3.4176   29.8552 H   0  0  0  0  0  0  0  0  0  0  0  0
   -1.6077   -4.0582   31.1117 H   0  0  0  0  0  0  0  0  0  0  0  0
   -0.8483   -1.9041   32.4994 H   0  0  0  0  0  0  0  0  0  0  0  0
   -3.0724   -1.1932   33.0111 H   0  0  0  0  0  0  0  0  0  0  0  0
   -2.7473   -2.9302   32.7917 H   0  0  0  0  0  0  0  0  0  0  0  0
   -4.1475   -2.1968   32.0264 H   0  0  0  0  0  0  0  0  0  0  0  0
  1  2  1  0
  2  3  1  0
  3  4  1  0
  4  5  1  0
  5  6  1  0
  6  7  1  0
  7  8  1  0
  8  9  1  0
  9 10  2  0
 10 11  1  0
 11 12  2  0
 12 13  1  0
 12 14  1  0
 14 15  1  0
 15 16  1  0
 16 17  1  0
 17 18  2  0
 18 19  1  0
 19 20  2  0
 20 21  1  0
 21 22  2  0
 22 23  1  0
 23 24  2  0
 24 25  1  0
 25 26  2  0
 20 27  1  0
  6 28  1  0
 28 29  1  0
 29 30  1  0
 30 31  1  0
 29  3  1  0
 15  6  1  0
 27 17  1  0
 14  9  1  0
 26 21  1  0
  1 32  1  0
  1 33  1  0
  1 34  1  0
  3 35  1  0
  4 36  1  0
  4 37  1  0
  5 38  1  0
  5 39  1  0
  7 40  1  0
  7 41  1  0
  8 42  1  0
  8 43  1  0
 13 44  1  0
 13 45  1  0
 15 46  1  0
 16 47  1  0
 22 48  1  0
 23 49  1  0
 24 50  1  0
 25 51  1  0
 26 52  1  0
 27 53  1  0
 28 54  1  0
 28 55  1  0
 29 56  1  0
 31 57  1  0
 31 58  1  0
 31 59  1  0
M  END
>  <Energy>  (671) 
64.325850781983576

>  <compound_id>  (671) 
4288

>  <target_id>  (671) 
1

>  <reference_id>  (671) 
198

>  <inspiration_ids>  (671) 
[149, 198]

>  <energy_score>  (671) 
-55.50314448994487

>  <distance_score>  (671) 
2.67400533897563

>  <path>  (671) 
/opt/xchem-fragalysis-2/maxwin/BulkDock/SCRATCH/505735/C4288-P198/C4288-P198.minimised.mol

>  <scratch_subdir>  (671) 
/opt/xchem-fragalysis-2/maxwin/BulkDock/SCRATCH/505735/C4288-P198

>  <fragmenstein_runtime>  (671) 
3.9106836318969727

>  <fragmenstein_outcome>  (671) 
too moved

>  <fragmenstein_mode>  (671) 
expansion

>  <fragmenstein_error>  (671) 


$$$$
C4288-P149
     RDKit          2D

  0  0  0  0  0  0  0  0  0  0999 V2000
M  END
>  <compound_id>  (672) 
4288

>  <target_id>  (672) 
1

>  <reference_id>  (672) 
149

>  <inspiration_ids>  (672) 
[149, 199]

>  <energy_score>  (672) 
nan

>  <distance_score>  (672) 
nan

>  <path>  (672) 
/opt/xchem-fragalysis-2/maxwin/BulkDock/SCRATCH/505735/C4288-P149/C4288-P149.minimised.mol

>  <scratch_subdir>  (672) 
/opt/xchem-fragalysis-2/maxwin/BulkDock/SCRATCH/505735/C4288-P149

>  <fragmenstein_runtime>  (672) 
0.37937402725219727

>  <fragmenstein_outcome>  (672) 
too distant

>  <fragmenstein_mode>  (672) 
expansion

>  <fragmenstein_error>  (672) 
DistanceError: hit1

$$$$
C3759-P149
     RDKit          3D

 54 58  0  0  0  0  0  0  0  0999 V2000
    1.8709   -0.8181   36.3860 C   0  0  0  0  0  0  0  0  0  0  0  0
    1.6172   -1.7810   35.2774 N   0  0  0  0  0  0  0  0  0  0  0  0
    3.1513   -1.8722   35.3536 C   0  0  0  0  0  0  0  0  0  0  0  0
    3.7117   -2.4130   34.0381 C   0  0  0  0  0  0  0  0  0  0  0  0
    4.2505   -3.7048   33.9636 C   0  0  0  0  0  0  0  0  0  0  0  0
    4.7763   -4.1772   32.7615 C   0  0  0  0  0  0  0  0  0  0  0  0
    4.7584   -3.3731   31.6229 C   0  0  0  0  0  0  0  0  0  0  0  0
    4.2189   -2.0899   31.6841 C   0  0  0  0  0  0  0  0  0  0  0  0
    3.7008   -1.6085   32.8866 C   0  0  0  0  0  0  0  0  0  0  0  0
    0.9786   -3.1728   35.2982 C   0  0  0  0  0  0  0  0  0  0  0  0
    0.6260   -3.8123   36.1822 O   0  0  0  0  0  0  0  0  0  0  0  0
    0.8554   -3.4184   33.7673 N   0  0  0  0  0  0  0  0  0  0  0  0
    0.3756   -4.5030   33.0763 C   0  0  0  0  0  0  0  0  0  0  0  0
    0.4350   -4.3789   31.6165 C   0  0  0  0  0  0  0  0  0  0  0  0
    0.0476   -5.3657   30.7897 C   0  0  0  0  0  0  0  0  0  0  0  0
   -0.5144   -6.5446   31.3329 C   0  0  0  0  0  0  0  0  0  0  0  0
   -1.0757   -7.5981   30.7775 N   0  0  0  0  0  0  0  0  0  0  0  0
   -1.5249   -8.4106   31.7891 N   0  0  0  0  0  0  0  0  0  0  0  0
   -1.1963   -7.8455   32.9319 C   0  0  0  0  0  0  0  0  0  0  0  0
   -0.5592   -6.6509   32.7101 N   0  0  0  0  0  0  0  0  0  0  0  0
   -0.0611   -5.6767   33.6081 C   0  0  0  0  0  0  0  0  0  0  0  0
    0.0743   -6.0760   34.9429 N   0  0  0  0  0  0  0  0  0  0  0  0
    1.1408   -6.8896   35.1882 C   0  0  0  0  0  0  0  0  0  0  0  0
    1.8900   -7.5278   34.3136 N   0  0  0  0  0  0  0  0  0  0  0  0
    2.9446   -8.0787   34.9730 N   0  0  0  0  0  0  0  0  0  0  0  0
    2.8045   -7.8071   36.2563 C   0  0  0  0  0  0  0  0  0  0  0  0
    3.7130   -8.2203   37.3053 C   0  0  0  0  0  0  0  0  0  0  0  0
    5.0912   -8.1073   37.0950 C   0  0  0  0  0  0  0  0  0  0  0  0
    5.9988   -8.6021   38.0285 C   0  0  0  0  0  0  0  0  0  0  0  0
    5.5321   -9.2325   39.1716 C   0  0  0  0  0  0  0  0  0  0  0  0
    4.1609   -9.3392   39.3916 C   0  0  0  0  0  0  0  0  0  0  0  0
    3.2484   -8.8209   38.4752 C   0  0  0  0  0  0  0  0  0  0  0  0
    1.6549   -7.0808   36.4357 N   0  0  0  0  0  0  0  0  0  0  0  0
    0.8554   -0.5740   36.7325 H   0  0  0  0  0  0  0  0  0  0  0  0
    2.2631    0.1542   36.0529 H   0  0  0  0  0  0  0  0  0  0  0  0
    2.3297   -1.2350   37.2967 H   0  0  0  0  0  0  0  0  0  0  0  0
    3.7309   -0.9369   35.4674 H   0  0  0  0  0  0  0  0  0  0  0  0
    3.4352   -2.5850   36.1460 H   0  0  0  0  0  0  0  0  0  0  0  0
    4.2648   -4.3557   34.8353 H   0  0  0  0  0  0  0  0  0  0  0  0
    5.2033   -5.1758   32.7154 H   0  0  0  0  0  0  0  0  0  0  0  0
    5.1723   -3.7458   30.6891 H   0  0  0  0  0  0  0  0  0  0  0  0
    4.2125   -1.4618   30.7965 H   0  0  0  0  0  0  0  0  0  0  0  0
    3.2901   -0.6015   32.9242 H   0  0  0  0  0  0  0  0  0  0  0  0
    1.2016   -2.6112   33.2647 H   0  0  0  0  0  0  0  0  0  0  0  0
    0.8477   -3.4670   31.1926 H   0  0  0  0  0  0  0  0  0  0  0  0
    0.1129   -5.2548   29.7137 H   0  0  0  0  0  0  0  0  0  0  0  0
   -1.3935   -8.2344   33.9209 H   0  0  0  0  0  0  0  0  0  0  0  0
    0.0232   -5.2686   35.5758 H   0  0  0  0  0  0  0  0  0  0  0  0
    5.4678   -7.6584   36.1771 H   0  0  0  0  0  0  0  0  0  0  0  0
    7.0669   -8.5179   37.8466 H   0  0  0  0  0  0  0  0  0  0  0  0
    6.2324   -9.6408   39.8961 H   0  0  0  0  0  0  0  0  0  0  0  0
    3.7981   -9.8365   40.2887 H   0  0  0  0  0  0  0  0  0  0  0  0
    2.1833   -8.9539   38.6548 H   0  0  0  0  0  0  0  0  0  0  0  0
    1.2939   -6.7121   37.3015 H   0  0  0  0  0  0  0  0  0  0  0  0
  1  2  1  0
  2  3  1  0
  3  4  1  0
  4  5  2  0
  5  6  1  0
  6  7  2  0
  7  8  1  0
  8  9  2  0
  2 10  1  0
 10 11  2  0
 10 12  1  0
 12 13  1  0
 13 14  1  0
 14 15  2  0
 15 16  1  0
 16 17  2  0
 17 18  1  0
 18 19  2  0
 19 20  1  0
 20 21  1  0
 21 22  1  0
 22 23  1  0
 23 24  2  0
 24 25  1  0
 25 26  2  0
 26 27  1  0
 27 28  2  0
 28 29  1  0
 29 30  2  0
 30 31  1  0
 31 32  2  0
 26 33  1  0
  9  4  1  0
 21 13  2  0
 33 23  1  0
 20 16  1  0
 32 27  1  0
  1 34  1  0
  1 35  1  0
  1 36  1  0
  3 37  1  0
  3 38  1  0
  5 39  1  0
  6 40  1  0
  7 41  1  0
  8 42  1  0
  9 43  1  0
 12 44  1  0
 14 45  1  0
 15 46  1  0
 19 47  1  0
 22 48  1  0
 28 49  1  0
 29 50  1  0
 30 51  1  0
 31 52  1  0
 32 53  1  0
 33 54  1  0
M  END
>  <Energy>  (673) 
86.525542675618098

>  <compound_id>  (673) 
3759

>  <target_id>  (673) 
1

>  <reference_id>  (673) 
149

>  <inspiration_ids>  (673) 
[149, 200]

>  <energy_score>  (673) 
22.937749069648362

>  <distance_score>  (673) 
4.002000578384259

>  <path>  (673) 
/opt/xchem-fragalysis-2/maxwin/BulkDock/SCRATCH/505735/C3759-P149/C3759-P149.minimised.mol

>  <scratch_subdir>  (673) 
/opt/xchem-fragalysis-2/maxwin/BulkDock/SCRATCH/505735/C3759-P149

>  <fragmenstein_runtime>  (673) 
9.849238872528076

>  <fragmenstein_outcome>  (673) 
too moved

>  <fragmenstein_mode>  (673) 
expansion

>  <fragmenstein_error>  (673) 


$$$$
C3759-P200
     RDKit          3D

 54 58  0  0  0  0  0  0  0  0999 V2000
    2.4948   -0.6132   35.8452 C   0  0  0  0  0  0  0  0  0  0  0  0
    2.0522   -1.5880   34.8113 N   0  0  0  0  0  0  0  0  0  0  0  0
    3.5691   -1.5879   34.5351 C   0  0  0  0  0  0  0  0  0  0  0  0
    3.8204   -1.9901   33.0805 C   0  0  0  0  0  0  0  0  0  0  0  0
    4.4012   -3.2244   32.7595 C   0  0  0  0  0  0  0  0  0  0  0  0
    4.6198   -3.5705   31.4250 C   0  0  0  0  0  0  0  0  0  0  0  0
    4.2563   -2.6956   30.4026 C   0  0  0  0  0  0  0  0  0  0  0  0
    3.6784   -1.4664   30.7105 C   0  0  0  0  0  0  0  0  0  0  0  0
    3.4646   -1.1115   32.0425 C   0  0  0  0  0  0  0  0  0  0  0  0
    1.5164   -3.0162   34.9576 C   0  0  0  0  0  0  0  0  0  0  0  0
    1.4119   -3.6759   35.8900 O   0  0  0  0  0  0  0  0  0  0  0  0
    1.0625   -3.2685   33.4910 N   0  0  0  0  0  0  0  0  0  0  0  0
    0.5009   -4.3813   32.9113 C   0  0  0  0  0  0  0  0  0  0  0  0
    0.4257   -4.3187   31.4474 C   0  0  0  0  0  0  0  0  0  0  0  0
   -0.0660   -5.3213   30.7004 C   0  0  0  0  0  0  0  0  0  0  0  0
   -0.6062   -6.4590   31.3392 C   0  0  0  0  0  0  0  0  0  0  0  0
   -1.2493   -7.5113   30.8781 N   0  0  0  0  0  0  0  0  0  0  0  0
   -1.5947   -8.2874   31.9556 N   0  0  0  0  0  0  0  0  0  0  0  0
   -1.1365   -7.6955   33.0382 C   0  0  0  0  0  0  0  0  0  0  0  0
   -0.5088   -6.5187   32.7189 N   0  0  0  0  0  0  0  0  0  0  0  0
    0.0902   -5.5203   33.5346 C   0  0  0  0  0  0  0  0  0  0  0  0
    0.2926   -5.8360   34.8888 N   0  0  0  0  0  0  0  0  0  0  0  0
    1.2694   -6.7519   35.1435 C   0  0  0  0  0  0  0  0  0  0  0  0
    1.7893   -7.6218   34.3096 N   0  0  0  0  0  0  0  0  0  0  0  0
    2.8418   -8.2234   34.9154 N   0  0  0  0  0  0  0  0  0  0  0  0
    2.9558   -7.7317   36.1342 C   0  0  0  0  0  0  0  0  0  0  0  0
    3.9796   -8.1355   37.0846 C   0  0  0  0  0  0  0  0  0  0  0  0
    3.8455   -7.9641   38.4643 C   0  0  0  0  0  0  0  0  0  0  0  0
    4.8324   -8.4504   39.3251 C   0  0  0  0  0  0  0  0  0  0  0  0
    5.9518   -9.1075   38.8152 C   0  0  0  0  0  0  0  0  0  0  0  0
    6.0964   -9.2782   37.4440 C   0  0  0  0  0  0  0  0  0  0  0  0
    5.1180   -8.7925   36.5855 C   0  0  0  0  0  0  0  0  0  0  0  0
    1.9553   -6.8089   36.3246 N   0  0  0  0  0  0  0  0  0  0  0  0
    1.5746   -0.4322   36.4206 H   0  0  0  0  0  0  0  0  0  0  0  0
    2.7412    0.3808   35.4432 H   0  0  0  0  0  0  0  0  0  0  0  0
    3.1768   -1.0040   36.6178 H   0  0  0  0  0  0  0  0  0  0  0  0
    4.1358   -0.6392   34.5953 H   0  0  0  0  0  0  0  0  0  0  0  0
    4.0489   -2.3409   35.1817 H   0  0  0  0  0  0  0  0  0  0  0  0
    4.6855   -3.9269   33.5402 H   0  0  0  0  0  0  0  0  0  0  0  0
    5.0815   -4.5230   31.1788 H   0  0  0  0  0  0  0  0  0  0  0  0
    4.4320   -2.9690   29.3641 H   0  0  0  0  0  0  0  0  0  0  0  0
    3.4032   -0.7830   29.9103 H   0  0  0  0  0  0  0  0  0  0  0  0
    3.0158   -0.1464   32.2699 H   0  0  0  0  0  0  0  0  0  0  0  0
    1.3849   -2.5128   32.9007 H   0  0  0  0  0  0  0  0  0  0  0  0
    0.8292   -3.4426   30.9456 H   0  0  0  0  0  0  0  0  0  0  0  0
   -0.0865   -5.2581   29.6189 H   0  0  0  0  0  0  0  0  0  0  0  0
   -1.2339   -8.0511   34.0527 H   0  0  0  0  0  0  0  0  0  0  0  0
    0.3894   -4.9809   35.4470 H   0  0  0  0  0  0  0  0  0  0  0  0
    2.9654   -7.4961   38.8957 H   0  0  0  0  0  0  0  0  0  0  0  0
    4.7176   -8.3351   40.4006 H   0  0  0  0  0  0  0  0  0  0  0  0
    6.7088   -9.4938   39.4937 H   0  0  0  0  0  0  0  0  0  0  0  0
    6.9644   -9.7969   37.0458 H   0  0  0  0  0  0  0  0  0  0  0  0
    5.2375   -8.9507   35.5145 H   0  0  0  0  0  0  0  0  0  0  0  0
    1.8071   -6.2229   37.1310 H   0  0  0  0  0  0  0  0  0  0  0  0
  1  2  1  0
  2  3  1  0
  3  4  1  0
  4  5  2  0
  5  6  1  0
  6  7  2  0
  7  8  1  0
  8  9  2  0
  2 10  1  0
 10 11  2  0
 10 12  1  0
 12 13  1  0
 13 14  1  0
 14 15  2  0
 15 16  1  0
 16 17  2  0
 17 18  1  0
 18 19  2  0
 19 20  1  0
 20 21  1  0
 21 22  1  0
 22 23  1  0
 23 24  2  0
 24 25  1  0
 25 26  2  0
 26 27  1  0
 27 28  2  0
 28 29  1  0
 29 30  2  0
 30 31  1  0
 31 32  2  0
 26 33  1  0
  9  4  1  0
 21 13  2  0
 33 23  1  0
 20 16  1  0
 32 27  1  0
  1 34  1  0
  1 35  1  0
  1 36  1  0
  3 37  1  0
  3 38  1  0
  5 39  1  0
  6 40  1  0
  7 41  1  0
  8 42  1  0
  9 43  1  0
 12 44  1  0
 14 45  1  0
 15 46  1  0
 19 47  1  0
 22 48  1  0
 28 49  1  0
 29 50  1  0
 30 51  1  0
 31 52  1  0
 32 53  1  0
 33 54  1  0
M  END
>  <Energy>  (674) 
84.399215466587236

>  <compound_id>  (674) 
3759

>  <target_id>  (674) 
1

>  <reference_id>  (674) 
200

>  <inspiration_ids>  (674) 
[149, 200]

>  <energy_score>  (674) 
20.811421860620612

>  <distance_score>  (674) 
3.746724927194955

>  <path>  (674) 
/opt/xchem-fragalysis-2/maxwin/BulkDock/SCRATCH/505735/C3759-P200/C3759-P200.minimised.mol

>  <scratch_subdir>  (674) 
/opt/xchem-fragalysis-2/maxwin/BulkDock/SCRATCH/505735/C3759-P200

>  <fragmenstein_runtime>  (674) 
8.523452520370483

>  <fragmenstein_outcome>  (674) 
too moved

>  <fragmenstein_mode>  (674) 
expansion

>  <fragmenstein_error>  (674) 


$$$$
C4289-P149
     RDKit          3D

 52 56  0  0  0  0  0  0  0  0999 V2000
    2.9186   -4.5099   29.4834 C   0  0  0  0  0  0  0  0  0  0  0  0
    2.7021   -3.5127   30.5800 N   0  0  0  0  0  0  0  0  0  0  0  0
    3.1787   -2.5418   29.4977 C   0  0  0  0  0  0  0  0  0  0  0  0
    4.5795   -2.6412   28.8901 C   0  0  0  0  0  0  0  0  0  0  0  0
    4.7308   -3.0340   27.5469 C   0  0  0  0  0  0  0  0  0  0  0  0
    5.9936   -3.2745   27.0138 C   0  0  0  0  0  0  0  0  0  0  0  0
    7.1231   -3.0939   27.8050 C   0  0  0  0  0  0  0  0  0  0  0  0
    6.9904   -2.6668   29.1252 C   0  0  0  0  0  0  0  0  0  0  0  0
    5.7250   -2.4391   29.6673 C   0  0  0  0  0  0  0  0  0  0  0  0
    3.3735   -3.9712   31.8320 C   0  0  0  0  0  0  0  0  0  0  0  0
    4.4662   -3.7602   32.2350 O   0  0  0  0  0  0  0  0  0  0  0  0
    2.2936   -4.7916   32.4014 N   0  0  0  0  0  0  0  0  0  0  0  0
    2.2833   -5.6496   33.5433 C   0  0  0  0  0  0  0  0  0  0  0  0
    1.4416   -6.6421   33.7734 N   0  0  0  0  0  0  0  0  0  0  0  0
    1.9485   -7.4073   34.7933 N   0  0  0  0  0  0  0  0  0  0  0  0
    3.1127   -6.9071   35.1623 C   0  0  0  0  0  0  0  0  0  0  0  0
    3.9893   -7.4257   36.2063 C   0  0  0  0  0  0  0  0  0  0  0  0
    3.4293   -8.0913   37.3066 C   0  0  0  0  0  0  0  0  0  0  0  0
    4.2417   -8.6255   38.3091 C   0  0  0  0  0  0  0  0  0  0  0  0
    5.6254   -8.5046   38.2196 C   0  0  0  0  0  0  0  0  0  0  0  0
    6.1957   -7.8470   37.1312 C   0  0  0  0  0  0  0  0  0  0  0  0
    5.3837   -7.3066   36.1295 C   0  0  0  0  0  0  0  0  0  0  0  0
    3.3779   -5.8203   34.3670 N   0  0  0  0  0  0  0  0  0  0  0  0
    1.4408   -3.9864   33.2759 C   0  0  0  0  0  0  0  0  0  0  0  0
    1.8340   -2.9722   34.0906 C   0  0  0  0  0  0  0  0  0  0  0  0
    0.8261   -2.1040   34.6845 C   0  0  0  0  0  0  0  0  0  0  0  0
   -0.4662   -2.1568   34.3079 C   0  0  0  0  0  0  0  0  0  0  0  0
   -0.8661   -3.0971   33.3284 C   0  0  0  0  0  0  0  0  0  0  0  0
   -1.9699   -3.2613   32.6338 N   0  0  0  0  0  0  0  0  0  0  0  0
   -1.7784   -4.3255   31.7969 N   0  0  0  0  0  0  0  0  0  0  0  0
   -0.5745   -4.7949   31.9998 C   0  0  0  0  0  0  0  0  0  0  0  0
    0.0756   -4.0130   32.9109 N   0  0  0  0  0  0  0  0  0  0  0  0
    2.4280   -4.3269   28.5141 H   0  0  0  0  0  0  0  0  0  0  0  0
    2.3384   -5.3829   29.8162 H   0  0  0  0  0  0  0  0  0  0  0  0
    3.9438   -4.8979   29.4260 H   0  0  0  0  0  0  0  0  0  0  0  0
    2.3916   -2.3593   28.7461 H   0  0  0  0  0  0  0  0  0  0  0  0
    3.1965   -1.5869   30.0462 H   0  0  0  0  0  0  0  0  0  0  0  0
    3.8610   -3.1919   26.9163 H   0  0  0  0  0  0  0  0  0  0  0  0
    6.1062   -3.6099   25.9859 H   0  0  0  0  0  0  0  0  0  0  0  0
    8.1096   -3.2850   27.3869 H   0  0  0  0  0  0  0  0  0  0  0  0
    7.8764   -2.5221   29.7385 H   0  0  0  0  0  0  0  0  0  0  0  0
    5.6425   -2.1275   30.7061 H   0  0  0  0  0  0  0  0  0  0  0  0
    2.3474   -8.2063   37.3874 H   0  0  0  0  0  0  0  0  0  0  0  0
    3.7881   -9.1389   39.1536 H   0  0  0  0  0  0  0  0  0  0  0  0
    6.2583   -8.9233   38.9981 H   0  0  0  0  0  0  0  0  0  0  0  0
    7.2773   -7.7582   37.0609 H   0  0  0  0  0  0  0  0  0  0  0  0
    5.8639   -6.8202   35.2847 H   0  0  0  0  0  0  0  0  0  0  0  0
    4.2139   -5.2542   34.3604 H   0  0  0  0  0  0  0  0  0  0  0  0
    2.8743   -2.7498   34.3057 H   0  0  0  0  0  0  0  0  0  0  0  0
    1.1511   -1.3834   35.4301 H   0  0  0  0  0  0  0  0  0  0  0  0
   -1.2156   -1.4952   34.7284 H   0  0  0  0  0  0  0  0  0  0  0  0
   -0.1271   -5.6434   31.5051 H   0  0  0  0  0  0  0  0  0  0  0  0
  1  2  1  0
  2  3  1  0
  3  4  1  0
  4  5  2  0
  5  6  1  0
  6  7  2  0
  7  8  1  0
  8  9  2  0
  2 10  1  0
 10 11  2  0
 10 12  1  0
 12 13  1  0
 13 14  2  0
 14 15  1  0
 15 16  2  0
 16 17  1  0
 17 18  2  0
 18 19  1  0
 19 20  2  0
 20 21  1  0
 21 22  2  0
 16 23  1  0
 12 24  1  0
 24 25  2  0
 25 26  1  0
 26 27  2  0
 27 28  1  0
 28 29  2  0
 29 30  1  0
 30 31  2  0
 31 32  1  0
  9  4  1  0
 23 13  1  0
 32 24  1  0
 22 17  1  0
 32 28  1  0
  1 33  1  0
  1 34  1  0
  1 35  1  0
  3 36  1  0
  3 37  1  0
  5 38  1  0
  6 39  1  0
  7 40  1  0
  8 41  1  0
  9 42  1  0
 18 43  1  0
 19 44  1  0
 20 45  1  0
 21 46  1  0
 22 47  1  0
 23 48  1  0
 25 49  1  0
 26 50  1  0
 27 51  1  0
 31 52  1  0
M  END
>  <Energy>  (675) 
186.18832898059753

>  <compound_id>  (675) 
4289

>  <target_id>  (675) 
1

>  <reference_id>  (675) 
149

>  <inspiration_ids>  (675) 
[149, 201]

>  <energy_score>  (675) 
86.64892502094594

>  <distance_score>  (675) 
3.529393095766337

>  <path>  (675) 
/opt/xchem-fragalysis-2/maxwin/BulkDock/SCRATCH/505735/C4289-P149/C4289-P149.minimised.mol

>  <scratch_subdir>  (675) 
/opt/xchem-fragalysis-2/maxwin/BulkDock/SCRATCH/505735/C4289-P149

>  <fragmenstein_runtime>  (675) 
9.417628765106201

>  <fragmenstein_outcome>  (675) 
too moved

>  <fragmenstein_mode>  (675) 
expansion

>  <fragmenstein_error>  (675) 


$$$$
C4289-P201
     RDKit          3D

 52 56  0  0  0  0  0  0  0  0999 V2000
    5.3532   -4.2772   31.3882 C   0  0  0  0  0  0  0  0  0  0  0  0
    4.1746   -3.5603   32.0104 N   0  0  0  0  0  0  0  0  0  0  0  0
    4.7831   -2.3840   31.2917 C   0  0  0  0  0  0  0  0  0  0  0  0
    4.4881   -2.3314   29.7968 C   0  0  0  0  0  0  0  0  0  0  0  0
    3.2190   -2.6865   29.3084 C   0  0  0  0  0  0  0  0  0  0  0  0
    2.9835   -2.7562   27.9368 C   0  0  0  0  0  0  0  0  0  0  0  0
    4.0090   -2.4640   27.0409 C   0  0  0  0  0  0  0  0  0  0  0  0
    5.2655   -2.0881   27.5149 C   0  0  0  0  0  0  0  0  0  0  0  0
    5.5056   -2.0162   28.8875 C   0  0  0  0  0  0  0  0  0  0  0  0
    4.0995   -3.8688   33.4390 C   0  0  0  0  0  0  0  0  0  0  0  0
    4.5769   -3.3125   34.3681 O   0  0  0  0  0  0  0  0  0  0  0  0
    3.2300   -5.0723   33.3842 N   0  0  0  0  0  0  0  0  0  0  0  0
    2.8115   -5.9559   34.4165 C   0  0  0  0  0  0  0  0  0  0  0  0
    2.2332   -7.1384   34.2728 N   0  0  0  0  0  0  0  0  0  0  0  0
    2.4834   -7.8860   35.3907 N   0  0  0  0  0  0  0  0  0  0  0  0
    3.2601   -7.1832   36.1912 C   0  0  0  0  0  0  0  0  0  0  0  0
    3.8950   -7.6442   37.4155 C   0  0  0  0  0  0  0  0  0  0  0  0
    3.1746   -8.4342   38.3179 C   0  0  0  0  0  0  0  0  0  0  0  0
    3.7885   -8.9370   39.4659 C   0  0  0  0  0  0  0  0  0  0  0  0
    5.1295   -8.6585   39.7183 C   0  0  0  0  0  0  0  0  0  0  0  0
    5.8555   -7.8690   38.8292 C   0  0  0  0  0  0  0  0  0  0  0  0
    5.2414   -7.3591   37.6840 C   0  0  0  0  0  0  0  0  0  0  0  0
    3.4353   -5.9392   35.6430 N   0  0  0  0  0  0  0  0  0  0  0  0
    1.7761   -4.6741   33.4439 C   0  0  0  0  0  0  0  0  0  0  0  0
    1.3723   -3.5254   34.0580 C   0  0  0  0  0  0  0  0  0  0  0  0
    0.0235   -3.0210   33.8784 C   0  0  0  0  0  0  0  0  0  0  0  0
   -0.8452   -3.6131   33.0436 C   0  0  0  0  0  0  0  0  0  0  0  0
   -0.4657   -4.7914   32.3616 C   0  0  0  0  0  0  0  0  0  0  0  0
   -1.0917   -5.5509   31.4883 N   0  0  0  0  0  0  0  0  0  0  0  0
   -0.2320   -6.5398   31.0892 N   0  0  0  0  0  0  0  0  0  0  0  0
    0.8876   -6.3542   31.7436 C   0  0  0  0  0  0  0  0  0  0  0  0
    0.8146   -5.2766   32.5782 N   0  0  0  0  0  0  0  0  0  0  0  0
    5.2093   -4.5464   30.3353 H   0  0  0  0  0  0  0  0  0  0  0  0
    6.3587   -3.8977   31.6321 H   0  0  0  0  0  0  0  0  0  0  0  0
    5.3933   -5.2480   31.8918 H   0  0  0  0  0  0  0  0  0  0  0  0
    4.2007   -1.5433   31.7030 H   0  0  0  0  0  0  0  0  0  0  0  0
    5.7998   -2.0848   31.5978 H   0  0  0  0  0  0  0  0  0  0  0  0
    2.4103   -2.9267   29.9966 H   0  0  0  0  0  0  0  0  0  0  0  0
    1.9957   -3.0269   27.5725 H   0  0  0  0  0  0  0  0  0  0  0  0
    3.8244   -2.5106   25.9712 H   0  0  0  0  0  0  0  0  0  0  0  0
    6.0573   -1.8464   26.8105 H   0  0  0  0  0  0  0  0  0  0  0  0
    6.4949   -1.7319   29.2383 H   0  0  0  0  0  0  0  0  0  0  0  0
    2.1269   -8.6698   38.1276 H   0  0  0  0  0  0  0  0  0  0  0  0
    3.2157   -9.5492   40.1582 H   0  0  0  0  0  0  0  0  0  0  0  0
    5.6073   -9.0557   40.6107 H   0  0  0  0  0  0  0  0  0  0  0  0
    6.9029   -7.6550   39.0279 H   0  0  0  0  0  0  0  0  0  0  0  0
    5.8386   -6.7683   36.9943 H   0  0  0  0  0  0  0  0  0  0  0  0
    4.0304   -5.2016   35.9912 H   0  0  0  0  0  0  0  0  0  0  0  0
    2.0279   -2.9135   34.6705 H   0  0  0  0  0  0  0  0  0  0  0  0
   -0.2645   -2.1258   34.4229 H   0  0  0  0  0  0  0  0  0  0  0  0
   -1.8428   -3.2164   32.8996 H   0  0  0  0  0  0  0  0  0  0  0  0
    1.7690   -6.9479   31.6801 H   0  0  0  0  0  0  0  0  0  0  0  0
  1  2  1  0
  2  3  1  0
  3  4  1  0
  4  5  2  0
  5  6  1  0
  6  7  2  0
  7  8  1  0
  8  9  2  0
  2 10  1  0
 10 11  2  0
 10 12  1  0
 12 13  1  0
 13 14  2  0
 14 15  1  0
 15 16  2  0
 16 17  1  0
 17 18  2  0
 18 19  1  0
 19 20  2  0
 20 21  1  0
 21 22  2  0
 16 23  1  0
 12 24  1  0
 24 25  2  0
 25 26  1  0
 26 27  2  0
 27 28  1  0
 28 29  2  0
 29 30  1  0
 30 31  2  0
 31 32  1  0
  9  4  1  0
 23 13  1  0
 32 24  1  0
 22 17  1  0
 32 28  1  0
  1 33  1  0
  1 34  1  0
  1 35  1  0
  3 36  1  0
  3 37  1  0
  5 38  1  0
  6 39  1  0
  7 40  1  0
  8 41  1  0
  9 42  1  0
 18 43  1  0
 19 44  1  0
 20 45  1  0
 21 46  1  0
 22 47  1  0
 23 48  1  0
 25 49  1  0
 26 50  1  0
 27 51  1  0
 31 52  1  0
M  END
>  <Energy>  (676) 
179.45606751987432

>  <compound_id>  (676) 
4289

>  <target_id>  (676) 
1

>  <reference_id>  (676) 
201

>  <inspiration_ids>  (676) 
[149, 201]

>  <energy_score>  (676) 
79.91666356022431

>  <distance_score>  (676) 
2.747458187115818

>  <path>  (676) 
/opt/xchem-fragalysis-2/maxwin/BulkDock/SCRATCH/505735/C4289-P201/C4289-P201.minimised.mol

>  <scratch_subdir>  (676) 
/opt/xchem-fragalysis-2/maxwin/BulkDock/SCRATCH/505735/C4289-P201

>  <fragmenstein_runtime>  (676) 
9.896509408950806

>  <fragmenstein_outcome>  (676) 
too moved

>  <fragmenstein_mode>  (676) 
expansion

>  <fragmenstein_error>  (676) 


$$$$
C4290-P149
     RDKit          3D

 58 62  0  0  0  0  0  0  0  0999 V2000
    1.6764    2.4366   32.0724 C   0  0  0  0  0  0  0  0  0  0  0  0
    1.2145    1.0966   32.2981 N   0  0  0  0  0  0  0  0  0  0  0  0
    0.7656    0.0042   31.2935 C   0  0  0  0  0  0  0  0  0  0  0  0
    0.7757    0.0003   30.1277 O   0  0  0  0  0  0  0  0  0  0  0  0
    0.2829   -1.1954   32.1301 C   0  0  0  0  0  0  0  0  0  0  0  0
   -0.5517   -2.1514   31.2701 C   0  0  0  0  0  0  0  0  0  0  0  0
   -0.9836   -3.3802   32.0679 C   0  0  0  0  0  0  0  0  0  0  0  0
    0.1959   -4.1930   32.6877 C   0  0  0  0  0  0  0  0  0  0  0  0
    1.0930   -4.8249   31.5887 C   0  0  0  0  0  0  0  0  0  0  0  0
    0.3402   -5.8041   30.6988 C   0  0  0  0  0  0  0  0  0  0  0  0
   -0.4812   -6.7423   31.4932 C   0  0  0  0  0  0  0  0  0  0  0  0
   -1.1114   -7.8144   31.0661 N   0  0  0  0  0  0  0  0  0  0  0  0
   -1.7223   -8.3913   32.1527 N   0  0  0  0  0  0  0  0  0  0  0  0
   -1.4570   -7.6641   33.2161 C   0  0  0  0  0  0  0  0  0  0  0  0
   -1.7777   -7.9240   34.5050 N   0  0  0  0  0  0  0  0  0  0  0  0
   -0.7486   -6.5613   32.8258 N   0  0  0  0  0  0  0  0  0  0  0  0
   -0.4137   -5.3619   33.5972 C   0  0  0  0  0  0  0  0  0  0  0  0
    0.3277   -5.5677   34.8583 N   0  0  0  0  0  0  0  0  0  0  0  0
    1.3317   -6.4543   34.9481 C   0  0  0  0  0  0  0  0  0  0  0  0
    1.8621   -7.2003   34.0140 N   0  0  0  0  0  0  0  0  0  0  0  0
    2.8443   -7.9607   34.5795 N   0  0  0  0  0  0  0  0  0  0  0  0
    2.9290   -7.6524   35.8592 C   0  0  0  0  0  0  0  0  0  0  0  0
    3.8974   -8.2009   36.7995 C   0  0  0  0  0  0  0  0  0  0  0  0
    3.7516   -8.0997   38.1882 C   0  0  0  0  0  0  0  0  0  0  0  0
    4.6999   -8.6751   39.0383 C   0  0  0  0  0  0  0  0  0  0  0  0
    5.7940   -9.3575   38.5101 C   0  0  0  0  0  0  0  0  0  0  0  0
    5.9477   -9.4656   37.1324 C   0  0  0  0  0  0  0  0  0  0  0  0
    5.0078   -8.8892   36.2840 C   0  0  0  0  0  0  0  0  0  0  0  0
    1.9594   -6.7210   36.1334 N   0  0  0  0  0  0  0  0  0  0  0  0
    1.0501   -3.1986   33.5047 C   0  0  0  0  0  0  0  0  0  0  0  0
    1.4738   -1.9324   32.7509 C   0  0  0  0  0  0  0  0  0  0  0  0
    2.5499    2.6166   32.7023 H   0  0  0  0  0  0  0  0  0  0  0  0
    1.9312    2.5610   31.0178 H   0  0  0  0  0  0  0  0  0  0  0  0
    0.8750    3.1278   32.3432 H   0  0  0  0  0  0  0  0  0  0  0  0
    0.9910    0.8024   33.2399 H   0  0  0  0  0  0  0  0  0  0  0  0
   -0.3671   -0.8134   32.9288 H   0  0  0  0  0  0  0  0  0  0  0  0
   -1.4442   -1.6288   30.9029 H   0  0  0  0  0  0  0  0  0  0  0  0
    0.0047   -2.4620   30.3777 H   0  0  0  0  0  0  0  0  0  0  0  0
   -1.6482   -3.0402   32.8738 H   0  0  0  0  0  0  0  0  0  0  0  0
   -1.5960   -4.0121   31.4227 H   0  0  0  0  0  0  0  0  0  0  0  0
    1.5527   -4.0652   30.9482 H   0  0  0  0  0  0  0  0  0  0  0  0
    1.9272   -5.3469   32.0724 H   0  0  0  0  0  0  0  0  0  0  0  0
   -0.2927   -5.2546   29.9962 H   0  0  0  0  0  0  0  0  0  0  0  0
    1.0562   -6.3564   30.0880 H   0  0  0  0  0  0  0  0  0  0  0  0
   -1.9451   -8.9369   34.6375 H   0  0  0  0  0  0  0  0  0  0  0  0
   -1.0477   -7.6935   35.1742 H   0  0  0  0  0  0  0  0  0  0  0  0
   -1.3940   -5.0073   33.9299 H   0  0  0  0  0  0  0  0  0  0  0  0
   -0.0732   -5.1006   35.6646 H   0  0  0  0  0  0  0  0  0  0  0  0
    2.8951   -7.6039   38.6348 H   0  0  0  0  0  0  0  0  0  0  0  0
    4.5782   -8.6027   40.1166 H   0  0  0  0  0  0  0  0  0  0  0  0
    6.5251   -9.8093   39.1763 H   0  0  0  0  0  0  0  0  0  0  0  0
    6.7982   -9.9999   36.7168 H   0  0  0  0  0  0  0  0  0  0  0  0
    5.1416   -8.9902   35.2073 H   0  0  0  0  0  0  0  0  0  0  0  0
    1.7721   -6.2911   37.0235 H   0  0  0  0  0  0  0  0  0  0  0  0
    0.4817   -2.8813   34.3897 H   0  0  0  0  0  0  0  0  0  0  0  0
    1.9580   -3.6879   33.8786 H   0  0  0  0  0  0  0  0  0  0  0  0
    2.2065   -2.1831   31.9743 H   0  0  0  0  0  0  0  0  0  0  0  0
    2.0025   -1.2732   33.4502 H   0  0  0  0  0  0  0  0  0  0  0  0
  1  2  1  0
  2  3  1  0
  3  4  2  0
  3  5  1  0
  5  6  1  0
  6  7  1  0
  7  8  1  0
  8  9  1  0
  9 10  1  0
 10 11  1  0
 11 12  2  0
 12 13  1  0
 13 14  2  0
 14 15  1  0
 14 16  1  0
 16 17  1  0
 17 18  1  0
 18 19  1  0
 19 20  2  0
 20 21  1  0
 21 22  2  0
 22 23  1  0
 23 24  2  0
 24 25  1  0
 25 26  2  0
 26 27  1  0
 27 28  2  0
 22 29  1  0
  8 30  1  0
 30 31  1  0
 31  5  1  0
 17  8  1  0
 29 19  1  0
 16 11  1  0
 28 23  1  0
  1 32  1  0
  1 33  1  0
  1 34  1  0
  2 35  1  0
  5 36  1  0
  6 37  1  0
  6 38  1  0
  7 39  1  0
  7 40  1  0
  9 41  1  0
  9 42  1  0
 10 43  1  0
 10 44  1  0
 15 45  1  0
 15 46  1  0
 17 47  1  0
 18 48  1  0
 24 49  1  0
 25 50  1  0
 26 51  1  0
 27 52  1  0
 28 53  1  0
 29 54  1  0
 30 55  1  0
 30 56  1  0
 31 57  1  0
 31 58  1  0
M  END
>  <Energy>  (677) 
6.9607568166196039

>  <compound_id>  (677) 
4290

>  <target_id>  (677) 
1

>  <reference_id>  (677) 
149

>  <inspiration_ids>  (677) 
[149, 202]

>  <energy_score>  (677) 
-71.24866182620008

>  <distance_score>  (677) 
1.701613734397689

>  <path>  (677) 
/opt/xchem-fragalysis-2/maxwin/BulkDock/SCRATCH/505735/C4290-P149/C4290-P149.minimised.mol

>  <scratch_subdir>  (677) 
/opt/xchem-fragalysis-2/maxwin/BulkDock/SCRATCH/505735/C4290-P149

>  <fragmenstein_runtime>  (677) 
8.19218111038208

>  <fragmenstein_outcome>  (677) 
too moved

>  <fragmenstein_mode>  (677) 
expansion

>  <fragmenstein_error>  (677) 


$$$$
C4290-P202
     RDKit          3D

 58 62  0  0  0  0  0  0  0  0999 V2000
    2.3511   -0.3775   28.3243 C   0  0  0  0  0  0  0  0  0  0  0  0
    1.4268   -0.6043   29.3980 N   0  0  0  0  0  0  0  0  0  0  0  0
    1.6395   -1.0574   30.7427 C   0  0  0  0  0  0  0  0  0  0  0  0
    2.6509   -1.2875   31.3383 O   0  0  0  0  0  0  0  0  0  0  0  0
    0.2753   -1.2105   31.4583 C   0  0  0  0  0  0  0  0  0  0  0  0
    0.4393   -1.4070   32.9688 C   0  0  0  0  0  0  0  0  0  0  0  0
    0.8648   -2.8180   33.4113 C   0  0  0  0  0  0  0  0  0  0  0  0
    0.2561   -3.9952   32.5942 C   0  0  0  0  0  0  0  0  0  0  0  0
    1.3220   -4.5719   31.6126 C   0  0  0  0  0  0  0  0  0  0  0  0
    0.7479   -5.6506   30.6887 C   0  0  0  0  0  0  0  0  0  0  0  0
   -0.1339   -6.5894   31.4210 C   0  0  0  0  0  0  0  0  0  0  0  0
   -0.7650   -7.6423   30.9474 N   0  0  0  0  0  0  0  0  0  0  0  0
   -1.4531   -8.2141   31.9932 N   0  0  0  0  0  0  0  0  0  0  0  0
   -1.2332   -7.4978   33.0736 C   0  0  0  0  0  0  0  0  0  0  0  0
   -1.6132   -7.7628   34.3453 N   0  0  0  0  0  0  0  0  0  0  0  0
   -0.4919   -6.4047   32.7320 N   0  0  0  0  0  0  0  0  0  0  0  0
   -0.2193   -5.2003   33.5178 C   0  0  0  0  0  0  0  0  0  0  0  0
    0.6107   -5.3583   34.7281 N   0  0  0  0  0  0  0  0  0  0  0  0
    1.5484   -6.3085   34.8773 C   0  0  0  0  0  0  0  0  0  0  0  0
    1.9691   -7.2296   34.0474 N   0  0  0  0  0  0  0  0  0  0  0  0
    2.9020   -7.9988   34.6941 N   0  0  0  0  0  0  0  0  0  0  0  0
    3.0610   -7.5246   35.9142 C   0  0  0  0  0  0  0  0  0  0  0  0
    3.9799   -8.0312   36.9262 C   0  0  0  0  0  0  0  0  0  0  0  0
    3.7292   -7.8930   38.2975 C   0  0  0  0  0  0  0  0  0  0  0  0
    4.6195   -8.4240   39.2352 C   0  0  0  0  0  0  0  0  0  0  0  0
    5.7648   -9.0962   38.8128 C   0  0  0  0  0  0  0  0  0  0  0  0
    6.0224   -9.2440   37.4530 C   0  0  0  0  0  0  0  0  0  0  0  0
    5.1339   -8.7164   36.5159 C   0  0  0  0  0  0  0  0  0  0  0  0
    2.2167   -6.4541   36.0626 N   0  0  0  0  0  0  0  0  0  0  0  0
   -0.9662   -3.4315   31.8101 C   0  0  0  0  0  0  0  0  0  0  0  0
   -0.6024   -2.3066   30.8359 C   0  0  0  0  0  0  0  0  0  0  0  0
    3.3205   -0.0863   28.7354 H   0  0  0  0  0  0  0  0  0  0  0  0
    1.9560    0.4068   27.6758 H   0  0  0  0  0  0  0  0  0  0  0  0
    2.4630   -1.3086   27.7657 H   0  0  0  0  0  0  0  0  0  0  0  0
    0.4315   -0.5975   29.2049 H   0  0  0  0  0  0  0  0  0  0  0  0
   -0.2312   -0.2435   31.3222 H   0  0  0  0  0  0  0  0  0  0  0  0
    1.1477   -0.6766   33.3797 H   0  0  0  0  0  0  0  0  0  0  0  0
   -0.5235   -1.1782   33.4467 H   0  0  0  0  0  0  0  0  0  0  0  0
    1.9597   -2.8862   33.4034 H   0  0  0  0  0  0  0  0  0  0  0  0
    0.5763   -2.8861   34.4661 H   0  0  0  0  0  0  0  0  0  0  0  0
    1.7729   -3.7903   30.9953 H   0  0  0  0  0  0  0  0  0  0  0  0
    2.1497   -5.0023   32.1919 H   0  0  0  0  0  0  0  0  0  0  0  0
    0.1740   -5.1840   29.8806 H   0  0  0  0  0  0  0  0  0  0  0  0
    1.5665   -6.1939   30.2093 H   0  0  0  0  0  0  0  0  0  0  0  0
   -1.7669   -8.7768   34.4552 H   0  0  0  0  0  0  0  0  0  0  0  0
   -0.9249   -7.4976   35.0457 H   0  0  0  0  0  0  0  0  0  0  0  0
   -1.2012   -4.9137   33.9028 H   0  0  0  0  0  0  0  0  0  0  0  0
    0.3424   -4.7467   35.4918 H   0  0  0  0  0  0  0  0  0  0  0  0
    2.8276   -7.4091   38.6625 H   0  0  0  0  0  0  0  0  0  0  0  0
    4.4101   -8.3287   40.2982 H   0  0  0  0  0  0  0  0  0  0  0  0
    6.4508   -9.5151   39.5452 H   0  0  0  0  0  0  0  0  0  0  0  0
    6.9101   -9.7765   37.1210 H   0  0  0  0  0  0  0  0  0  0  0  0
    5.3448   -8.8503   35.4558 H   0  0  0  0  0  0  0  0  0  0  0  0
    2.1245   -5.8750   36.8804 H   0  0  0  0  0  0  0  0  0  0  0  0
   -1.4852   -4.2117   31.2490 H   0  0  0  0  0  0  0  0  0  0  0  0
   -1.7102   -3.0535   32.5247 H   0  0  0  0  0  0  0  0  0  0  0  0
   -1.5366   -1.8534   30.4798 H   0  0  0  0  0  0  0  0  0  0  0  0
   -0.1294   -2.7383   29.9465 H   0  0  0  0  0  0  0  0  0  0  0  0
  1  2  1  0
  2  3  1  0
  3  4  2  0
  3  5  1  0
  5  6  1  0
  6  7  1  0
  7  8  1  0
  8  9  1  0
  9 10  1  0
 10 11  1  0
 11 12  2  0
 12 13  1  0
 13 14  2  0
 14 15  1  0
 14 16  1  0
 16 17  1  0
 17 18  1  0
 18 19  1  0
 19 20  2  0
 20 21  1  0
 21 22  2  0
 22 23  1  0
 23 24  2  0
 24 25  1  0
 25 26  2  0
 26 27  1  0
 27 28  2  0
 22 29  1  0
  8 30  1  0
 30 31  1  0
 31  5  1  0
 17  8  1  0
 29 19  1  0
 16 11  1  0
 28 23  1  0
  1 32  1  0
  1 33  1  0
  1 34  1  0
  2 35  1  0
  5 36  1  0
  6 37  1  0
  6 38  1  0
  7 39  1  0
  7 40  1  0
  9 41  1  0
  9 42  1  0
 10 43  1  0
 10 44  1  0
 15 45  1  0
 15 46  1  0
 17 47  1  0
 18 48  1  0
 24 49  1  0
 25 50  1  0
 26 51  1  0
 27 52  1  0
 28 53  1  0
 29 54  1  0
 30 55  1  0
 30 56  1  0
 31 57  1  0
 31 58  1  0
M  END
>  <Energy>  (678) 
3.2498121216727194

>  <compound_id>  (678) 
4290

>  <target_id>  (678) 
1

>  <reference_id>  (678) 
202

>  <inspiration_ids>  (678) 
[149, 202]

>  <energy_score>  (678) 
-45.966226865589846

>  <distance_score>  (678) 
1.8311290274484404

>  <path>  (678) 
/opt/xchem-fragalysis-2/maxwin/BulkDock/SCRATCH/505735/C4290-P202/C4290-P202.minimised.mol

>  <scratch_subdir>  (678) 
/opt/xchem-fragalysis-2/maxwin/BulkDock/SCRATCH/505735/C4290-P202

>  <fragmenstein_runtime>  (678) 
10.17906403541565

>  <fragmenstein_outcome>  (678) 
too moved

>  <fragmenstein_mode>  (678) 
expansion

>  <fragmenstein_error>  (678) 


$$$$
C4049-P150
     RDKit          3D

 63 68  0  0  0  0  0  0  0  0999 V2000
    2.7500   -3.3741   33.2330 O   0  0  0  0  0  0  0  0  0  0  0  0
    1.7019   -3.5690   32.6865 C   0  0  0  0  0  0  0  0  0  0  0  0
    1.1396   -4.9210   32.3852 C   0  0  0  0  0  0  0  0  0  0  0  0
    0.7764   -5.1647   30.9873 C   0  0  0  0  0  0  0  0  0  0  0  0
   -0.0811   -6.1291   30.6479 C   0  0  0  0  0  0  0  0  0  0  0  0
   -0.6209   -6.9443   31.6553 C   0  0  0  0  0  0  0  0  0  0  0  0
   -1.5055   -7.9056   31.5811 N   0  0  0  0  0  0  0  0  0  0  0  0
   -1.7292   -8.3322   32.8552 N   0  0  0  0  0  0  0  0  0  0  0  0
   -0.9515   -7.6552   33.6711 C   0  0  0  0  0  0  0  0  0  0  0  0
   -0.2099   -6.7431   32.9725 N   0  0  0  0  0  0  0  0  0  0  0  0
    0.7291   -5.7520   33.3737 C   0  0  0  0  0  0  0  0  0  0  0  0
    1.1679   -5.6707   34.7030 N   0  0  0  0  0  0  0  0  0  0  0  0
    0.3513   -5.6062   35.7794 C   0  0  0  0  0  0  0  0  0  0  0  0
   -0.9092   -5.2664   35.8676 N   0  0  0  0  0  0  0  0  0  0  0  0
   -1.2874   -5.3702   37.1819 N   0  0  0  0  0  0  0  0  0  0  0  0
   -0.2705   -5.8509   37.8710 C   0  0  0  0  0  0  0  0  0  0  0  0
   -0.2685   -6.2216   39.2811 C   0  0  0  0  0  0  0  0  0  0  0  0
    0.5594   -7.2391   39.7766 C   0  0  0  0  0  0  0  0  0  0  0  0
    0.5075   -7.6008   41.1258 C   0  0  0  0  0  0  0  0  0  0  0  0
   -0.3733   -6.9545   41.9907 C   0  0  0  0  0  0  0  0  0  0  0  0
   -1.2072   -5.9491   41.5088 C   0  0  0  0  0  0  0  0  0  0  0  0
   -1.1555   -5.5866   40.1617 C   0  0  0  0  0  0  0  0  0  0  0  0
    0.8037   -5.9458   37.0228 N   0  0  0  0  0  0  0  0  0  0  0  0
    0.7746   -2.6572   32.1017 N   0  0  0  0  0  0  0  0  0  0  0  0
   -0.2688   -2.2167   33.1515 C   0  0  0  0  0  0  0  0  0  0  0  0
   -1.6461   -1.7965   32.6080 C   0  0  0  0  0  0  0  0  0  0  0  0
   -1.5211   -0.5637   31.7360 C   0  0  0  0  0  0  0  0  0  0  0  0
   -0.2676   -0.7689   30.8987 C   0  0  0  0  0  0  0  0  0  0  0  0
   -0.0319    0.3510   29.9254 C   0  0  0  0  0  0  0  0  0  0  0  0
   -0.7744    0.3329   28.7314 C   0  0  0  0  0  0  0  0  0  0  0  0
   -0.6075    1.3180   27.7700 C   0  0  0  0  0  0  0  0  0  0  0  0
    0.3337    2.3269   27.9685 C   0  0  0  0  0  0  0  0  0  0  0  0
    0.5727    3.3531   26.9030 C   0  0  0  0  0  0  0  0  0  0  0  0
    0.5276    4.6699   27.4377 O   0  0  0  0  0  0  0  0  0  0  0  0
    1.0842    2.3446   29.1526 C   0  0  0  0  0  0  0  0  0  0  0  0
    0.8931    1.3728   30.1337 C   0  0  0  0  0  0  0  0  0  0  0  0
    0.8628   -1.1762   31.8810 C   0  0  0  0  0  0  0  0  0  0  0  0
    1.1813   -4.5010   30.2259 H   0  0  0  0  0  0  0  0  0  0  0  0
   -0.4087   -6.2711   29.6306 H   0  0  0  0  0  0  0  0  0  0  0  0
   -0.9098   -7.7931   34.7419 H   0  0  0  0  0  0  0  0  0  0  0  0
    1.9850   -5.0541   34.7733 H   0  0  0  0  0  0  0  0  0  0  0  0
    1.2238   -7.7932   39.1193 H   0  0  0  0  0  0  0  0  0  0  0  0
    1.1442   -8.3981   41.5005 H   0  0  0  0  0  0  0  0  0  0  0  0
   -0.4200   -7.2419   43.0381 H   0  0  0  0  0  0  0  0  0  0  0  0
   -1.9102   -5.4545   42.1746 H   0  0  0  0  0  0  0  0  0  0  0  0
   -1.8316   -4.8149   39.7965 H   0  0  0  0  0  0  0  0  0  0  0  0
    1.7259   -6.2731   37.2573 H   0  0  0  0  0  0  0  0  0  0  0  0
    0.1250   -1.5784   33.9615 H   0  0  0  0  0  0  0  0  0  0  0  0
   -0.4896   -3.1365   33.7139 H   0  0  0  0  0  0  0  0  0  0  0  0
   -2.3415   -1.6105   33.4336 H   0  0  0  0  0  0  0  0  0  0  0  0
   -2.0617   -2.6220   32.0155 H   0  0  0  0  0  0  0  0  0  0  0  0
   -1.4238    0.3336   32.3601 H   0  0  0  0  0  0  0  0  0  0  0  0
   -2.4185   -0.4347   31.1209 H   0  0  0  0  0  0  0  0  0  0  0  0
   -0.4390   -1.6529   30.2612 H   0  0  0  0  0  0  0  0  0  0  0  0
   -1.4784   -0.4731   28.5303 H   0  0  0  0  0  0  0  0  0  0  0  0
   -1.2088    1.2793   26.8660 H   0  0  0  0  0  0  0  0  0  0  0  0
    1.5527    3.1953   26.4411 H   0  0  0  0  0  0  0  0  0  0  0  0
   -0.1843    3.2929   26.1141 H   0  0  0  0  0  0  0  0  0  0  0  0
   -0.1889    4.6968   28.1002 H   0  0  0  0  0  0  0  0  0  0  0  0
    1.8232    3.1290   29.3106 H   0  0  0  0  0  0  0  0  0  0  0  0
    1.4882    1.4237   31.0409 H   0  0  0  0  0  0  0  0  0  0  0  0
    1.8045   -1.1032   31.3140 H   0  0  0  0  0  0  0  0  0  0  0  0
    1.0777   -0.5037   32.7274 H   0  0  0  0  0  0  0  0  0  0  0  0
  1  2  2  0
  2  3  1  0
  3  4  1  0
  4  5  2  0
  5  6  1  0
  6  7  2  0
  7  8  1  0
  8  9  2  0
  9 10  1  0
 10 11  1  0
 11 12  1  0
 12 13  1  0
 13 14  2  0
 14 15  1  0
 15 16  2  0
 16 17  1  0
 17 18  2  0
 18 19  1  0
 19 20  2  0
 20 21  1  0
 21 22  2  0
 16 23  1  0
  2 24  1  0
 24 25  1  0
 25 26  1  0
 26 27  1  0
 27 28  1  0
 28 29  1  0
 29 30  2  0
 30 31  1  0
 31 32  2  0
 32 33  1  0
 33 34  1  0
 32 35  1  0
 35 36  2  0
 28 37  1  0
 11  3  2  0
 23 13  1  0
 37 24  1  0
 10  6  1  0
 22 17  1  0
 36 29  1  0
  4 38  1  0
  5 39  1  0
  9 40  1  0
 12 41  1  0
 18 42  1  0
 19 43  1  0
 20 44  1  0
 21 45  1  0
 22 46  1  0
 23 47  1  0
 25 48  1  0
 25 49  1  0
 26 50  1  0
 26 51  1  0
 27 52  1  0
 27 53  1  0
 28 54  1  0
 30 55  1  0
 31 56  1  0
 33 57  1  0
 33 58  1  0
 34 59  1  0
 35 60  1  0
 36 61  1  0
 37 62  1  0
 37 63  1  0
M  END
>  <Energy>  (679) 
156.26279103207986

>  <compound_id>  (679) 
4049

>  <target_id>  (679) 
1

>  <reference_id>  (679) 
150

>  <inspiration_ids>  (679) 
[150, 13]

>  <energy_score>  (679) 
12.595453178244668

>  <distance_score>  (679) 
2.1597831656788533

>  <path>  (679) 
/opt/xchem-fragalysis-2/maxwin/BulkDock/SCRATCH/505735/C4049-P150/C4049-P150.minimised.mol

>  <scratch_subdir>  (679) 
/opt/xchem-fragalysis-2/maxwin/BulkDock/SCRATCH/505735/C4049-P150

>  <fragmenstein_runtime>  (679) 
7.7295427322387695

>  <fragmenstein_outcome>  (679) 
too moved

>  <fragmenstein_mode>  (679) 
expansion

>  <fragmenstein_error>  (679) 


$$$$
C4049-P13
     RDKit          3D

 63 68  0  0  0  0  0  0  0  0999 V2000
    2.7780   -3.3767   32.9457 O   0  0  0  0  0  0  0  0  0  0  0  0
    1.7125   -3.6528   32.4723 C   0  0  0  0  0  0  0  0  0  0  0  0
    1.1995   -5.0468   32.2932 C   0  0  0  0  0  0  0  0  0  0  0  0
    0.8342   -5.4208   30.9270 C   0  0  0  0  0  0  0  0  0  0  0  0
   -0.0843   -6.3604   30.6934 C   0  0  0  0  0  0  0  0  0  0  0  0
   -0.6697   -7.0348   31.7714 C   0  0  0  0  0  0  0  0  0  0  0  0
   -1.6335   -7.9195   31.7901 N   0  0  0  0  0  0  0  0  0  0  0  0
   -1.8682   -8.2092   33.0968 N   0  0  0  0  0  0  0  0  0  0  0  0
   -0.9968   -7.5576   33.8361 C   0  0  0  0  0  0  0  0  0  0  0  0
   -0.2261   -6.7425   33.0567 N   0  0  0  0  0  0  0  0  0  0  0  0
    0.7513   -5.7531   33.3603 C   0  0  0  0  0  0  0  0  0  0  0  0
    1.1665   -5.5221   34.6776 N   0  0  0  0  0  0  0  0  0  0  0  0
    0.3537   -5.4085   35.7508 C   0  0  0  0  0  0  0  0  0  0  0  0
   -0.9315   -5.1628   35.8242 N   0  0  0  0  0  0  0  0  0  0  0  0
   -1.2958   -5.2121   37.1461 N   0  0  0  0  0  0  0  0  0  0  0  0
   -0.2414   -5.5635   37.8574 C   0  0  0  0  0  0  0  0  0  0  0  0
   -0.2081   -5.8772   39.2813 C   0  0  0  0  0  0  0  0  0  0  0  0
    0.6987   -6.8072   39.8109 C   0  0  0  0  0  0  0  0  0  0  0  0
    0.6669   -7.1350   41.1696 C   0  0  0  0  0  0  0  0  0  0  0  0
   -0.2688   -6.5384   42.0118 C   0  0  0  0  0  0  0  0  0  0  0  0
   -1.1745   -5.6144   41.4983 C   0  0  0  0  0  0  0  0  0  0  0  0
   -1.1432   -5.2867   40.1414 C   0  0  0  0  0  0  0  0  0  0  0  0
    0.8386   -5.6038   37.0129 N   0  0  0  0  0  0  0  0  0  0  0  0
    0.7132   -2.8218   31.8805 N   0  0  0  0  0  0  0  0  0  0  0  0
   -0.2917   -2.3557   32.9547 C   0  0  0  0  0  0  0  0  0  0  0  0
   -1.7138   -2.0412   32.4636 C   0  0  0  0  0  0  0  0  0  0  0  0
   -1.6935   -0.8489   31.5333 C   0  0  0  0  0  0  0  0  0  0  0  0
   -0.4831   -1.0386   30.6318 C   0  0  0  0  0  0  0  0  0  0  0  0
   -0.3570    0.0709   29.6271 C   0  0  0  0  0  0  0  0  0  0  0  0
    0.4788    1.1719   29.8010 C   0  0  0  0  0  0  0  0  0  0  0  0
    0.5470    2.1540   28.8145 C   0  0  0  0  0  0  0  0  0  0  0  0
   -0.2334    2.0644   27.6545 C   0  0  0  0  0  0  0  0  0  0  0  0
   -0.1390    3.1053   26.5813 C   0  0  0  0  0  0  0  0  0  0  0  0
   -0.0655    4.4109   27.1393 O   0  0  0  0  0  0  0  0  0  0  0  0
   -1.0685    0.9623   27.4804 C   0  0  0  0  0  0  0  0  0  0  0  0
   -1.1281   -0.0228   28.4560 C   0  0  0  0  0  0  0  0  0  0  0  0
    0.7216   -1.3550   31.5583 C   0  0  0  0  0  0  0  0  0  0  0  0
    1.2690   -4.8583   30.1041 H   0  0  0  0  0  0  0  0  0  0  0  0
   -0.4448   -6.5960   29.7111 H   0  0  0  0  0  0  0  0  0  0  0  0
   -0.9172   -7.6355   34.9093 H   0  0  0  0  0  0  0  0  0  0  0  0
    2.0041   -4.9324   34.7046 H   0  0  0  0  0  0  0  0  0  0  0  0
    1.4169   -7.3198   39.1774 H   0  0  0  0  0  0  0  0  0  0  0  0
    1.3623   -7.8690   41.5700 H   0  0  0  0  0  0  0  0  0  0  0  0
   -0.3009   -6.8022   43.0660 H   0  0  0  0  0  0  0  0  0  0  0  0
   -1.9194   -5.1592   42.1464 H   0  0  0  0  0  0  0  0  0  0  0  0
   -1.8776   -4.5822   39.7533 H   0  0  0  0  0  0  0  0  0  0  0  0
    1.7854   -5.8377   37.2621 H   0  0  0  0  0  0  0  0  0  0  0  0
    0.1118   -1.6441   33.6960 H   0  0  0  0  0  0  0  0  0  0  0  0
   -0.4390   -3.2395   33.5910 H   0  0  0  0  0  0  0  0  0  0  0  0
   -2.3782   -1.8500   33.3131 H   0  0  0  0  0  0  0  0  0  0  0  0
   -2.1101   -2.9147   31.9309 H   0  0  0  0  0  0  0  0  0  0  0  0
   -1.5993    0.0773   32.1137 H   0  0  0  0  0  0  0  0  0  0  0  0
   -2.6287   -0.7829   30.9676 H   0  0  0  0  0  0  0  0  0  0  0  0
   -0.6497   -1.9499   30.0336 H   0  0  0  0  0  0  0  0  0  0  0  0
    1.0912    1.2847   30.6907 H   0  0  0  0  0  0  0  0  0  0  0  0
    1.2113    3.0059   28.9534 H   0  0  0  0  0  0  0  0  0  0  0  0
    0.7573    2.9373   25.9761 H   0  0  0  0  0  0  0  0  0  0  0  0
   -1.0105    3.0774   25.9187 H   0  0  0  0  0  0  0  0  0  0  0  0
   -0.8130    4.4900   27.7625 H   0  0  0  0  0  0  0  0  0  0  0  0
   -1.6801    0.8521   26.5873 H   0  0  0  0  0  0  0  0  0  0  0  0
   -1.7808   -0.8795   28.2841 H   0  0  0  0  0  0  0  0  0  0  0  0
    1.6199   -1.2828   30.9243 H   0  0  0  0  0  0  0  0  0  0  0  0
    0.9678   -0.6266   32.3483 H   0  0  0  0  0  0  0  0  0  0  0  0
  1  2  2  0
  2  3  1  0
  3  4  1  0
  4  5  2  0
  5  6  1  0
  6  7  2  0
  7  8  1  0
  8  9  2  0
  9 10  1  0
 10 11  1  0
 11 12  1  0
 12 13  1  0
 13 14  2  0
 14 15  1  0
 15 16  2  0
 16 17  1  0
 17 18  2  0
 18 19  1  0
 19 20  2  0
 20 21  1  0
 21 22  2  0
 16 23  1  0
  2 24  1  0
 24 25  1  0
 25 26  1  0
 26 27  1  0
 27 28  1  0
 28 29  1  0
 29 30  2  0
 30 31  1  0
 31 32  2  0
 32 33  1  0
 33 34  1  0
 32 35  1  0
 35 36  2  0
 28 37  1  0
 11  3  2  0
 23 13  1  0
 37 24  1  0
 10  6  1  0
 22 17  1  0
 36 29  1  0
  4 38  1  0
  5 39  1  0
  9 40  1  0
 12 41  1  0
 18 42  1  0
 19 43  1  0
 20 44  1  0
 21 45  1  0
 22 46  1  0
 23 47  1  0
 25 48  1  0
 25 49  1  0
 26 50  1  0
 26 51  1  0
 27 52  1  0
 27 53  1  0
 28 54  1  0
 30 55  1  0
 31 56  1  0
 33 57  1  0
 33 58  1  0
 34 59  1  0
 35 60  1  0
 36 61  1  0
 37 62  1  0
 37 63  1  0
M  END
>  <Energy>  (680) 
157.82549519422935

>  <compound_id>  (680) 
4049

>  <target_id>  (680) 
1

>  <reference_id>  (680) 
13

>  <inspiration_ids>  (680) 
[150, 13]

>  <energy_score>  (680) 
14.158157340394723

>  <distance_score>  (680) 
2.39341605981895

>  <path>  (680) 
/opt/xchem-fragalysis-2/maxwin/BulkDock/SCRATCH/505735/C4049-P13/C4049-P13.minimised.mol

>  <scratch_subdir>  (680) 
/opt/xchem-fragalysis-2/maxwin/BulkDock/SCRATCH/505735/C4049-P13

>  <fragmenstein_runtime>  (680) 
8.636282682418823

>  <fragmenstein_outcome>  (680) 
too moved

>  <fragmenstein_mode>  (680) 
expansion

>  <fragmenstein_error>  (680) 


$$$$
C4293-P150
     RDKit          3D

 53 58  0  0  0  0  0  0  0  0999 V2000
   -1.3024    3.6054   26.8373 C   0  0  0  0  0  0  0  0  0  0  0  0
   -0.2930    3.6322   27.7981 C   0  0  0  0  0  0  0  0  0  0  0  0
    0.0855    2.4576   28.4634 C   0  0  0  0  0  0  0  0  0  0  0  0
   -0.5424    1.2420   28.1764 C   0  0  0  0  0  0  0  0  0  0  0  0
   -0.1784    0.0163   28.8903 C   0  0  0  0  0  0  0  0  0  0  0  0
    0.2907   -0.1084   30.1218 N   0  0  0  0  0  0  0  0  0  0  0  0
    0.4954   -1.4625   30.2620 C   0  0  0  0  0  0  0  0  0  0  0  0
    1.0794   -2.1102   31.5000 C   0  0  0  0  0  0  0  0  0  0  0  0
    1.6784   -3.4622   31.2920 N   0  0  0  0  0  0  0  0  0  0  0  0
    0.9534   -4.6078   31.6052 C   0  0  0  0  0  0  0  0  0  0  0  0
    0.9414   -5.0388   33.0093 C   0  0  0  0  0  0  0  0  0  0  0  0
    0.3064   -6.1720   33.3894 C   0  0  0  0  0  0  0  0  0  0  0  0
    0.3132   -6.7304   34.6620 N   0  0  0  0  0  0  0  0  0  0  0  0
    0.0255   -6.0780   35.8067 C   0  0  0  0  0  0  0  0  0  0  0  0
   -0.3049   -4.8323   36.0429 N   0  0  0  0  0  0  0  0  0  0  0  0
   -0.5936   -4.7206   37.3856 N   0  0  0  0  0  0  0  0  0  0  0  0
   -0.3731   -5.8889   37.9581 C   0  0  0  0  0  0  0  0  0  0  0  0
   -0.5344   -6.2415   39.3636 C   0  0  0  0  0  0  0  0  0  0  0  0
    0.0706   -7.3827   39.9151 C   0  0  0  0  0  0  0  0  0  0  0  0
   -0.1498   -7.7289   41.2500 C   0  0  0  0  0  0  0  0  0  0  0  0
   -0.9729   -6.9384   42.0479 C   0  0  0  0  0  0  0  0  0  0  0  0
   -1.5670   -5.7960   41.5172 C   0  0  0  0  0  0  0  0  0  0  0  0
   -1.3424   -5.4454   40.1850 C   0  0  0  0  0  0  0  0  0  0  0  0
   -0.0124   -6.7751   36.9794 N   0  0  0  0  0  0  0  0  0  0  0  0
   -0.3767   -6.8697   32.3847 N   0  0  0  0  0  0  0  0  0  0  0  0
   -1.2164   -7.9440   32.4602 C   0  0  0  0  0  0  0  0  0  0  0  0
   -1.5698   -8.3228   31.2588 N   0  0  0  0  0  0  0  0  0  0  0  0
   -1.0213   -7.4440   30.3608 N   0  0  0  0  0  0  0  0  0  0  0  0
   -0.3504   -6.5419   31.0439 C   0  0  0  0  0  0  0  0  0  0  0  0
    0.3454   -5.3690   30.6686 C   0  0  0  0  0  0  0  0  0  0  0  0
    0.2054   -2.1834   29.1695 N   0  0  0  0  0  0  0  0  0  0  0  0
   -0.2650   -1.2378   28.3394 N   0  0  0  0  0  0  0  0  0  0  0  0
   -1.5299    1.2333   27.1849 C   0  0  0  0  0  0  0  0  0  0  0  0
   -1.9261    2.4031   26.5310 C   0  0  0  0  0  0  0  0  0  0  0  0
   -1.6130    4.5226   26.3421 H   0  0  0  0  0  0  0  0  0  0  0  0
    0.1866    4.5753   28.0517 H   0  0  0  0  0  0  0  0  0  0  0  0
    0.8635    2.5037   29.2232 H   0  0  0  0  0  0  0  0  0  0  0  0
    1.8785   -1.4596   31.8732 H   0  0  0  0  0  0  0  0  0  0  0  0
    0.3074   -2.1500   32.2778 H   0  0  0  0  0  0  0  0  0  0  0  0
    1.8845   -3.4734   30.2865 H   0  0  0  0  0  0  0  0  0  0  0  0
    1.5004   -4.4430   33.7252 H   0  0  0  0  0  0  0  0  0  0  0  0
    0.1075   -7.7257   34.6705 H   0  0  0  0  0  0  0  0  0  0  0  0
    0.7176   -8.0233   39.3225 H   0  0  0  0  0  0  0  0  0  0  0  0
    0.3187   -8.6156   41.6686 H   0  0  0  0  0  0  0  0  0  0  0  0
   -1.1501   -7.2081   43.0861 H   0  0  0  0  0  0  0  0  0  0  0  0
   -2.2123   -5.1776   42.1363 H   0  0  0  0  0  0  0  0  0  0  0  0
   -1.8249   -4.5557   39.7835 H   0  0  0  0  0  0  0  0  0  0  0  0
    0.1452   -7.7635   37.0989 H   0  0  0  0  0  0  0  0  0  0  0  0
   -1.5425   -8.3973   33.3833 H   0  0  0  0  0  0  0  0  0  0  0  0
    0.3435   -5.0798   29.6237 H   0  0  0  0  0  0  0  0  0  0  0  0
   -0.6089   -1.5057   27.4218 H   0  0  0  0  0  0  0  0  0  0  0  0
   -2.0098    0.3044   26.9090 H   0  0  0  0  0  0  0  0  0  0  0  0
   -2.7303    2.3794   25.7981 H   0  0  0  0  0  0  0  0  0  0  0  0
  1  2  2  0
  2  3  1  0
  3  4  2  0
  4  5  1  0
  5  6  2  0
  6  7  1  0
  7  8  1  0
  8  9  1  0
  9 10  1  0
 10 11  1  0
 11 12  2  0
 12 13  1  0
 13 14  1  0
 14 15  2  0
 15 16  1  0
 16 17  2  0
 17 18  1  0
 18 19  2  0
 19 20  1  0
 20 21  2  0
 21 22  1  0
 22 23  2  0
 17 24  1  0
 12 25  1  0
 25 26  1  0
 26 27  2  0
 27 28  1  0
 28 29  2  0
 29 30  1  0
  7 31  2  0
 31 32  1  0
  4 33  1  0
 33 34  2  0
 34  1  1  0
 32  5  1  0
 30 10  2  0
 24 14  1  0
 29 25  1  0
 23 18  1  0
  1 35  1  0
  2 36  1  0
  3 37  1  0
  8 38  1  0
  8 39  1  0
  9 40  1  0
 11 41  1  0
 13 42  1  0
 19 43  1  0
 20 44  1  0
 21 45  1  0
 22 46  1  0
 23 47  1  0
 24 48  1  0
 26 49  1  0
 30 50  1  0
 32 51  1  0
 33 52  1  0
 34 53  1  0
M  END
>  <Energy>  (681) 
106.45518996202398

>  <compound_id>  (681) 
4293

>  <target_id>  (681) 
1

>  <reference_id>  (681) 
150

>  <inspiration_ids>  (681) 
[150, 44]

>  <energy_score>  (681) 
-43.61734055464899

>  <distance_score>  (681) 
0.655318580734425

>  <path>  (681) 
/opt/xchem-fragalysis-2/maxwin/BulkDock/SCRATCH/505735/C4293-P150/C4293-P150.minimised.mol

>  <scratch_subdir>  (681) 
/opt/xchem-fragalysis-2/maxwin/BulkDock/SCRATCH/505735/C4293-P150

>  <fragmenstein_runtime>  (681) 
9.109829664230347

>  <fragmenstein_outcome>  (681) 
acceptable

>  <fragmenstein_mode>  (681) 
expansion

>  <fragmenstein_error>  (681) 


$$$$
C4293-P44
     RDKit          3D

 53 58  0  0  0  0  0  0  0  0999 V2000
   -1.8519    3.4337   26.7937 C   0  0  0  0  0  0  0  0  0  0  0  0
   -0.8934    3.5392   27.7989 C   0  0  0  0  0  0  0  0  0  0  0  0
   -0.4289    2.3918   28.4477 C   0  0  0  0  0  0  0  0  0  0  0  0
   -0.9205    1.1277   28.0993 C   0  0  0  0  0  0  0  0  0  0  0  0
   -0.4155   -0.0651   28.7750 C   0  0  0  0  0  0  0  0  0  0  0  0
    0.0070   -0.1943   30.0221 N   0  0  0  0  0  0  0  0  0  0  0  0
    0.4247   -1.5036   30.0896 C   0  0  0  0  0  0  0  0  0  0  0  0
    1.0268   -2.1361   31.3244 C   0  0  0  0  0  0  0  0  0  0  0  0
    1.6369   -3.4817   31.1158 N   0  0  0  0  0  0  0  0  0  0  0  0
    0.9344   -4.6284   31.4694 C   0  0  0  0  0  0  0  0  0  0  0  0
    1.0045   -5.0510   32.8705 C   0  0  0  0  0  0  0  0  0  0  0  0
    0.3907   -6.1805   33.2899 C   0  0  0  0  0  0  0  0  0  0  0  0
    0.4873   -6.7119   34.5706 N   0  0  0  0  0  0  0  0  0  0  0  0
    0.0729   -6.0807   35.6906 C   0  0  0  0  0  0  0  0  0  0  0  0
   -0.5392   -4.9358   35.8693 N   0  0  0  0  0  0  0  0  0  0  0  0
   -0.8286   -4.8180   37.2117 N   0  0  0  0  0  0  0  0  0  0  0  0
   -0.3424   -5.8728   37.8408 C   0  0  0  0  0  0  0  0  0  0  0  0
   -0.4351   -6.1847   39.2659 C   0  0  0  0  0  0  0  0  0  0  0  0
    0.1890   -7.3100   39.8299 C   0  0  0  0  0  0  0  0  0  0  0  0
    0.0015   -7.6298   41.1777 C   0  0  0  0  0  0  0  0  0  0  0  0
   -0.8042   -6.8271   41.9802 C   0  0  0  0  0  0  0  0  0  0  0  0
   -1.4117   -5.6966   41.4415 C   0  0  0  0  0  0  0  0  0  0  0  0
   -1.2212   -5.3740   40.0961 C   0  0  0  0  0  0  0  0  0  0  0  0
    0.2292   -6.6883   36.9013 N   0  0  0  0  0  0  0  0  0  0  0  0
   -0.3537   -6.8844   32.3320 N   0  0  0  0  0  0  0  0  0  0  0  0
   -1.2012   -7.9476   32.4639 C   0  0  0  0  0  0  0  0  0  0  0  0
   -1.6579   -8.3208   31.2939 N   0  0  0  0  0  0  0  0  0  0  0  0
   -1.1592   -7.4448   30.3615 N   0  0  0  0  0  0  0  0  0  0  0  0
   -0.4155   -6.5589   30.9928 C   0  0  0  0  0  0  0  0  0  0  0  0
    0.2677   -5.3903   30.5749 C   0  0  0  0  0  0  0  0  0  0  0  0
    0.3178   -2.1858   28.9385 N   0  0  0  0  0  0  0  0  0  0  0  0
   -0.2561   -1.2688   28.1406 N   0  0  0  0  0  0  0  0  0  0  0  0
   -1.8828    1.0364   27.0809 C   0  0  0  0  0  0  0  0  0  0  0  0
   -2.3535    2.1849   26.4397 C   0  0  0  0  0  0  0  0  0  0  0  0
   -2.2269    4.3295   26.3033 H   0  0  0  0  0  0  0  0  0  0  0  0
   -0.5225    4.5182   28.0935 H   0  0  0  0  0  0  0  0  0  0  0  0
    0.3149    2.4912   29.2357 H   0  0  0  0  0  0  0  0  0  0  0  0
    1.8224   -1.4740   31.6848 H   0  0  0  0  0  0  0  0  0  0  0  0
    0.2634   -2.1799   32.1105 H   0  0  0  0  0  0  0  0  0  0  0  0
    1.8038   -3.5029   30.1017 H   0  0  0  0  0  0  0  0  0  0  0  0
    1.6058   -4.4542   33.5497 H   0  0  0  0  0  0  0  0  0  0  0  0
    0.4145   -7.7264   34.5835 H   0  0  0  0  0  0  0  0  0  0  0  0
    0.8210   -7.9689   39.2432 H   0  0  0  0  0  0  0  0  0  0  0  0
    0.4789   -8.5101   41.6019 H   0  0  0  0  0  0  0  0  0  0  0  0
   -0.9584   -7.0799   43.0263 H   0  0  0  0  0  0  0  0  0  0  0  0
   -2.0473   -5.0690   42.0612 H   0  0  0  0  0  0  0  0  0  0  0  0
   -1.7273   -4.4993   39.6896 H   0  0  0  0  0  0  0  0  0  0  0  0
    0.6689   -7.5773   37.0663 H   0  0  0  0  0  0  0  0  0  0  0  0
   -1.4663   -8.3758   33.4141 H   0  0  0  0  0  0  0  0  0  0  0  0
    0.2044   -5.0956   29.5348 H   0  0  0  0  0  0  0  0  0  0  0  0
   -0.4915   -1.5043   27.1814 H   0  0  0  0  0  0  0  0  0  0  0  0
   -2.2970    0.0748   26.7850 H   0  0  0  0  0  0  0  0  0  0  0  0
   -3.1245    2.1130   25.6764 H   0  0  0  0  0  0  0  0  0  0  0  0
  1  2  2  0
  2  3  1  0
  3  4  2  0
  4  5  1  0
  5  6  2  0
  6  7  1  0
  7  8  1  0
  8  9  1  0
  9 10  1  0
 10 11  1  0
 11 12  2  0
 12 13  1  0
 13 14  1  0
 14 15  2  0
 15 16  1  0
 16 17  2  0
 17 18  1  0
 18 19  2  0
 19 20  1  0
 20 21  2  0
 21 22  1  0
 22 23  2  0
 17 24  1  0
 12 25  1  0
 25 26  1  0
 26 27  2  0
 27 28  1  0
 28 29  2  0
 29 30  1  0
  7 31  2  0
 31 32  1  0
  4 33  1  0
 33 34  2  0
 34  1  1  0
 32  5  1  0
 30 10  2  0
 24 14  1  0
 29 25  1  0
 23 18  1  0
  1 35  1  0
  2 36  1  0
  3 37  1  0
  8 38  1  0
  8 39  1  0
  9 40  1  0
 11 41  1  0
 13 42  1  0
 19 43  1  0
 20 44  1  0
 21 45  1  0
 22 46  1  0
 23 47  1  0
 24 48  1  0
 26 49  1  0
 30 50  1  0
 32 51  1  0
 33 52  1  0
 34 53  1  0
M  END
>  <Energy>  (682) 
106.49163815194382

>  <compound_id>  (682) 
4293

>  <target_id>  (682) 
1

>  <reference_id>  (682) 
44

>  <inspiration_ids>  (682) 
[150, 44]

>  <energy_score>  (682) 
-43.58089236472847

>  <distance_score>  (682) 
0.5336862957609226

>  <path>  (682) 
/opt/xchem-fragalysis-2/maxwin/BulkDock/SCRATCH/505735/C4293-P44/C4293-P44.minimised.mol

>  <scratch_subdir>  (682) 
/opt/xchem-fragalysis-2/maxwin/BulkDock/SCRATCH/505735/C4293-P44

>  <fragmenstein_runtime>  (682) 
9.532798528671265

>  <fragmenstein_outcome>  (682) 
acceptable

>  <fragmenstein_mode>  (682) 
expansion

>  <fragmenstein_error>  (682) 


$$$$
C4297-P150
     RDKit          3D

 49 53  0  0  0  0  0  0  0  0999 V2000
   -1.2554   -7.9860   34.0015 N   0  0  0  0  0  0  0  0  0  0  0  0
   -1.0346   -7.6332   32.7275 C   0  0  0  0  0  0  0  0  0  0  0  0
   -1.4553   -8.1738   31.6072 N   0  0  0  0  0  0  0  0  0  0  0  0
   -1.0438   -7.3645   30.5645 N   0  0  0  0  0  0  0  0  0  0  0  0
   -0.3656   -6.3626   31.0858 C   0  0  0  0  0  0  0  0  0  0  0  0
   -0.2265   -6.5878   32.4261 N   0  0  0  0  0  0  0  0  0  0  0  0
    0.7459   -5.8613   33.2400 C   0  0  0  0  0  0  0  0  0  0  0  0
    0.9392   -6.3295   34.6230 N   0  0  0  0  0  0  0  0  0  0  0  0
    0.2412   -5.8584   35.6727 C   0  0  0  0  0  0  0  0  0  0  0  0
   -0.5653   -4.8399   35.8108 N   0  0  0  0  0  0  0  0  0  0  0  0
   -0.9965   -4.8172   37.1198 N   0  0  0  0  0  0  0  0  0  0  0  0
   -0.4296   -5.8200   37.7685 C   0  0  0  0  0  0  0  0  0  0  0  0
   -0.5658   -6.1672   39.1833 C   0  0  0  0  0  0  0  0  0  0  0  0
    0.0620   -7.2928   39.7444 C   0  0  0  0  0  0  0  0  0  0  0  0
   -0.1262   -7.6210   41.0904 C   0  0  0  0  0  0  0  0  0  0  0  0
   -0.9421   -6.8298   41.8937 C   0  0  0  0  0  0  0  0  0  0  0  0
   -1.5651   -5.7074   41.3551 C   0  0  0  0  0  0  0  0  0  0  0  0
   -1.3732   -5.3761   40.0115 C   0  0  0  0  0  0  0  0  0  0  0  0
    0.3217   -6.5194   36.8645 N   0  0  0  0  0  0  0  0  0  0  0  0
    0.6719   -4.3270   32.8934 C   0  0  0  0  0  0  0  0  0  0  0  0
    1.0253   -4.2619   31.3627 C   0  0  0  0  0  0  0  0  0  0  0  0
    0.1264   -5.1118   30.4487 C   0  0  0  0  0  0  0  0  0  0  0  0
    1.7560   -3.5047   33.6738 C   0  0  0  0  0  0  0  0  0  0  0  0
    1.2213   -2.6825   34.7709 N   0  0  0  0  0  0  0  0  0  0  0  0
    0.2262   -1.7325   34.2408 C   0  0  0  0  0  0  0  0  0  0  0  0
   -0.7016   -2.3066   33.1449 C   0  0  0  0  0  0  0  0  0  0  0  0
   -0.7098   -3.7787   33.0684 N   0  0  0  0  0  0  0  0  0  0  0  0
   -1.7998   -8.8434   34.1552 H   0  0  0  0  0  0  0  0  0  0  0  0
   -1.6347   -7.2533   34.5989 H   0  0  0  0  0  0  0  0  0  0  0  0
    1.6914   -6.1974   32.7900 H   0  0  0  0  0  0  0  0  0  0  0  0
    0.9660   -7.3494   34.6041 H   0  0  0  0  0  0  0  0  0  0  0  0
    0.6863   -7.9530   39.1502 H   0  0  0  0  0  0  0  0  0  0  0  0
    0.3562   -8.5000   41.5095 H   0  0  0  0  0  0  0  0  0  0  0  0
   -1.0972   -7.0868   42.9385 H   0  0  0  0  0  0  0  0  0  0  0  0
   -2.2119   -5.0907   41.9745 H   0  0  0  0  0  0  0  0  0  0  0  0
   -1.8820   -4.5018   39.6081 H   0  0  0  0  0  0  0  0  0  0  0  0
    0.8577   -7.3511   37.0437 H   0  0  0  0  0  0  0  0  0  0  0  0
    2.0616   -4.6039   31.2310 H   0  0  0  0  0  0  0  0  0  0  0  0
    1.0217   -3.2274   30.9970 H   0  0  0  0  0  0  0  0  0  0  0  0
    0.6878   -5.3526   29.5436 H   0  0  0  0  0  0  0  0  0  0  0  0
   -0.7331   -4.5061   30.1434 H   0  0  0  0  0  0  0  0  0  0  0  0
    2.2900   -2.8297   32.9921 H   0  0  0  0  0  0  0  0  0  0  0  0
    2.5224   -4.1709   34.0858 H   0  0  0  0  0  0  0  0  0  0  0  0
    0.7043   -3.3080   35.4038 H   0  0  0  0  0  0  0  0  0  0  0  0
    0.7476   -0.8524   33.8466 H   0  0  0  0  0  0  0  0  0  0  0  0
   -0.3819   -1.3834   35.0836 H   0  0  0  0  0  0  0  0  0  0  0  0
   -0.4122   -1.8968   32.1705 H   0  0  0  0  0  0  0  0  0  0  0  0
   -1.7269   -1.9634   33.3243 H   0  0  0  0  0  0  0  0  0  0  0  0
   -1.0663   -4.1001   33.9860 H   0  0  0  0  0  0  0  0  0  0  0  0
  1  2  1  0
  2  3  2  0
  3  4  1  0
  4  5  2  0
  5  6  1  0
  6  7  1  0
  7  8  1  0
  8  9  1  0
  9 10  2  0
 10 11  1  0
 11 12  2  0
 12 13  1  0
 13 14  2  0
 14 15  1  0
 15 16  2  0
 16 17  1  0
 17 18  2  0
 12 19  1  0
  7 20  1  0
 20 21  1  0
 21 22  1  0
 20 23  1  0
 23 24  1  0
 24 25  1  0
 25 26  1  0
 26 27  1  0
  6  2  1  0
 19  9  1  0
 27 20  1  0
 22  5  1  0
 18 13  1  0
  1 28  1  0
  1 29  1  0
  7 30  1  0
  8 31  1  0
 14 32  1  0
 15 33  1  0
 16 34  1  0
 17 35  1  0
 18 36  1  0
 19 37  1  0
 21 38  1  0
 21 39  1  0
 22 40  1  0
 22 41  1  0
 23 42  1  0
 23 43  1  0
 24 44  1  0
 25 45  1  0
 25 46  1  0
 26 47  1  0
 26 48  1  0
 27 49  1  0
M  END
>  <Energy>  (683) 
100.91862885989677

>  <compound_id>  (683) 
4297

>  <target_id>  (683) 
1

>  <reference_id>  (683) 
150

>  <inspiration_ids>  (683) 
[150, 78]

>  <energy_score>  (683) 
-53.48090362063115

>  <distance_score>  (683) 
0.9313695314065814

>  <path>  (683) 
/opt/xchem-fragalysis-2/maxwin/BulkDock/SCRATCH/505735/C4297-P150/C4297-P150.minimised.mol

>  <scratch_subdir>  (683) 
/opt/xchem-fragalysis-2/maxwin/BulkDock/SCRATCH/505735/C4297-P150

>  <fragmenstein_runtime>  (683) 
2.6093225479125977

>  <fragmenstein_outcome>  (683) 
acceptable

>  <fragmenstein_mode>  (683) 
expansion

>  <fragmenstein_error>  (683) 


$$$$
C4297-P78
     RDKit          3D

 49 53  0  0  0  0  0  0  0  0999 V2000
   -1.0972   -7.9806   34.0288 N   0  0  0  0  0  0  0  0  0  0  0  0
   -0.9530   -7.6160   32.7482 C   0  0  0  0  0  0  0  0  0  0  0  0
   -1.4643   -8.1407   31.6581 N   0  0  0  0  0  0  0  0  0  0  0  0
   -1.1135   -7.3277   30.5962 N   0  0  0  0  0  0  0  0  0  0  0  0
   -0.3749   -6.3460   31.0743 C   0  0  0  0  0  0  0  0  0  0  0  0
   -0.1580   -6.5743   32.4057 N   0  0  0  0  0  0  0  0  0  0  0  0
    0.8635   -5.8496   33.1601 C   0  0  0  0  0  0  0  0  0  0  0  0
    1.1184   -6.2487   34.5561 N   0  0  0  0  0  0  0  0  0  0  0  0
    0.3615   -5.8313   35.5876 C   0  0  0  0  0  0  0  0  0  0  0  0
   -0.6305   -4.9829   35.6610 N   0  0  0  0  0  0  0  0  0  0  0  0
   -1.0735   -4.9668   36.9667 N   0  0  0  0  0  0  0  0  0  0  0  0
   -0.3363   -5.8065   37.6739 C   0  0  0  0  0  0  0  0  0  0  0  0
   -0.4475   -6.1279   39.0964 C   0  0  0  0  0  0  0  0  0  0  0  0
    0.1576   -7.2682   39.6529 C   0  0  0  0  0  0  0  0  0  0  0  0
   -0.0206   -7.5869   41.0028 C   0  0  0  0  0  0  0  0  0  0  0  0
   -0.8025   -6.7705   41.8149 C   0  0  0  0  0  0  0  0  0  0  0  0
   -1.4008   -5.6326   41.2810 C   0  0  0  0  0  0  0  0  0  0  0  0
   -1.2199   -5.3118   39.9327 C   0  0  0  0  0  0  0  0  0  0  0  0
    0.5814   -6.3621   36.8250 N   0  0  0  0  0  0  0  0  0  0  0  0
    0.8001   -4.3162   32.7936 C   0  0  0  0  0  0  0  0  0  0  0  0
    1.0894   -4.2813   31.2543 C   0  0  0  0  0  0  0  0  0  0  0  0
    0.1177   -5.1122   30.4016 C   0  0  0  0  0  0  0  0  0  0  0  0
    1.9284   -3.5057   33.5220 C   0  0  0  0  0  0  0  0  0  0  0  0
    1.4555   -2.7276   34.6796 N   0  0  0  0  0  0  0  0  0  0  0  0
    0.4427   -1.7504   34.2344 C   0  0  0  0  0  0  0  0  0  0  0  0
   -0.5073   -2.2635   33.1274 C   0  0  0  0  0  0  0  0  0  0  0  0
   -0.5605   -3.7326   33.0219 N   0  0  0  0  0  0  0  0  0  0  0  0
   -1.6205   -8.8485   34.1858 H   0  0  0  0  0  0  0  0  0  0  0  0
   -1.4706   -7.2580   34.6428 H   0  0  0  0  0  0  0  0  0  0  0  0
    1.7836   -6.2167   32.6760 H   0  0  0  0  0  0  0  0  0  0  0  0
    1.2909   -7.2528   34.5745 H   0  0  0  0  0  0  0  0  0  0  0  0
    0.7491   -7.9510   39.0504 H   0  0  0  0  0  0  0  0  0  0  0  0
    0.4390   -8.4808   41.4179 H   0  0  0  0  0  0  0  0  0  0  0  0
   -0.9523   -7.0226   42.8617 H   0  0  0  0  0  0  0  0  0  0  0  0
   -2.0250   -4.9980   41.9054 H   0  0  0  0  0  0  0  0  0  0  0  0
   -1.7185   -4.4304   39.5315 H   0  0  0  0  0  0  0  0  0  0  0  0
    1.3067   -7.0150   37.0677 H   0  0  0  0  0  0  0  0  0  0  0  0
    2.1068   -4.6618   31.0804 H   0  0  0  0  0  0  0  0  0  0  0  0
    1.1009   -3.2519   30.8740 H   0  0  0  0  0  0  0  0  0  0  0  0
    0.6245   -5.3723   29.4705 H   0  0  0  0  0  0  0  0  0  0  0  0
   -0.7382   -4.4827   30.1391 H   0  0  0  0  0  0  0  0  0  0  0  0
    2.4068   -2.8029   32.8269 H   0  0  0  0  0  0  0  0  0  0  0  0
    2.7280   -4.1753   33.8586 H   0  0  0  0  0  0  0  0  0  0  0  0
    0.9655   -3.3714   35.3096 H   0  0  0  0  0  0  0  0  0  0  0  0
    0.9496   -0.8441   33.8834 H   0  0  0  0  0  0  0  0  0  0  0  0
   -0.1465   -1.4601   35.1122 H   0  0  0  0  0  0  0  0  0  0  0  0
   -0.2042   -1.8439   32.1612 H   0  0  0  0  0  0  0  0  0  0  0  0
   -1.5197   -1.8896   33.3176 H   0  0  0  0  0  0  0  0  0  0  0  0
   -0.8996   -4.0654   33.9400 H   0  0  0  0  0  0  0  0  0  0  0  0
  1  2  1  0
  2  3  2  0
  3  4  1  0
  4  5  2  0
  5  6  1  0
  6  7  1  0
  7  8  1  0
  8  9  1  0
  9 10  2  0
 10 11  1  0
 11 12  2  0
 12 13  1  0
 13 14  2  0
 14 15  1  0
 15 16  2  0
 16 17  1  0
 17 18  2  0
 12 19  1  0
  7 20  1  0
 20 21  1  0
 21 22  1  0
 20 23  1  0
 23 24  1  0
 24 25  1  0
 25 26  1  0
 26 27  1  0
  6  2  1  0
 19  9  1  0
 27 20  1  0
 22  5  1  0
 18 13  1  0
  1 28  1  0
  1 29  1  0
  7 30  1  0
  8 31  1  0
 14 32  1  0
 15 33  1  0
 16 34  1  0
 17 35  1  0
 18 36  1  0
 19 37  1  0
 21 38  1  0
 21 39  1  0
 22 40  1  0
 22 41  1  0
 23 42  1  0
 23 43  1  0
 24 44  1  0
 25 45  1  0
 25 46  1  0
 26 47  1  0
 26 48  1  0
 27 49  1  0
M  END
>  <Energy>  (684) 
99.471008820161501

>  <compound_id>  (684) 
4297

>  <target_id>  (684) 
1

>  <reference_id>  (684) 
78

>  <inspiration_ids>  (684) 
[150, 78]

>  <energy_score>  (684) 
-54.9285236603655

>  <distance_score>  (684) 
0.8966395669927556

>  <path>  (684) 
/opt/xchem-fragalysis-2/maxwin/BulkDock/SCRATCH/505735/C4297-P78/C4297-P78.minimised.mol

>  <scratch_subdir>  (684) 
/opt/xchem-fragalysis-2/maxwin/BulkDock/SCRATCH/505735/C4297-P78

>  <fragmenstein_runtime>  (684) 
2.242237091064453

>  <fragmenstein_outcome>  (684) 
acceptable

>  <fragmenstein_mode>  (684) 
expansion

>  <fragmenstein_error>  (684) 


$$$$
C4297-P150
     RDKit          3D

 49 53  0  0  0  0  0  0  0  0999 V2000
   -1.1542   -7.9543   34.2028 N   0  0  0  0  0  0  0  0  0  0  0  0
   -1.0064   -7.6002   32.9153 C   0  0  0  0  0  0  0  0  0  0  0  0
   -1.4745   -8.1538   31.8194 N   0  0  0  0  0  0  0  0  0  0  0  0
   -1.1267   -7.3485   30.7512 N   0  0  0  0  0  0  0  0  0  0  0  0
   -0.4360   -6.3347   31.2303 C   0  0  0  0  0  0  0  0  0  0  0  0
   -0.2331   -6.5419   32.5665 N   0  0  0  0  0  0  0  0  0  0  0  0
    0.8084   -5.8341   33.3047 C   0  0  0  0  0  0  0  0  0  0  0  0
    1.0659   -6.2456   34.6956 N   0  0  0  0  0  0  0  0  0  0  0  0
    0.3263   -5.8016   35.7311 C   0  0  0  0  0  0  0  0  0  0  0  0
   -0.5733   -4.8605   35.8357 N   0  0  0  0  0  0  0  0  0  0  0  0
   -1.0419   -4.8662   37.1333 N   0  0  0  0  0  0  0  0  0  0  0  0
   -0.4090   -5.8118   37.8057 C   0  0  0  0  0  0  0  0  0  0  0  0
   -0.5627   -6.1697   39.2153 C   0  0  0  0  0  0  0  0  0  0  0  0
    0.0572   -7.3011   39.7736 C   0  0  0  0  0  0  0  0  0  0  0  0
   -0.1426   -7.6373   41.1158 C   0  0  0  0  0  0  0  0  0  0  0  0
   -0.9637   -6.8494   41.9171 C   0  0  0  0  0  0  0  0  0  0  0  0
   -1.5828   -5.7241   41.3796 C   0  0  0  0  0  0  0  0  0  0  0  0
   -1.3795   -5.3849   40.0399 C   0  0  0  0  0  0  0  0  0  0  0  0
    0.4425   -6.4335   36.9353 N   0  0  0  0  0  0  0  0  0  0  0  0
    0.8011   -4.3070   32.9296 C   0  0  0  0  0  0  0  0  0  0  0  0
    1.0415   -4.2851   31.3743 C   0  0  0  0  0  0  0  0  0  0  0  0
    0.0219   -5.0908   30.5556 C   0  0  0  0  0  0  0  0  0  0  0  0
    1.9868   -3.5786   33.6402 C   0  0  0  0  0  0  0  0  0  0  0  0
    2.1562   -2.1665   33.2569 N   0  0  0  0  0  0  0  0  0  0  0  0
    0.8568   -1.4820   33.1251 C   0  0  0  0  0  0  0  0  0  0  0  0
   -0.3554   -2.2551   33.6809 C   0  0  0  0  0  0  0  0  0  0  0  0
   -0.5095   -3.6327   33.1735 N   0  0  0  0  0  0  0  0  0  0  0  0
   -1.6617   -8.8357   34.3720 H   0  0  0  0  0  0  0  0  0  0  0  0
   -1.5676   -7.2377   34.7982 H   0  0  0  0  0  0  0  0  0  0  0  0
    1.7122   -6.2270   32.8164 H   0  0  0  0  0  0  0  0  0  0  0  0
    1.1620   -7.2607   34.7037 H   0  0  0  0  0  0  0  0  0  0  0  0
    0.6779   -7.9632   39.1776 H   0  0  0  0  0  0  0  0  0  0  0  0
    0.3319   -8.5216   41.5326 H   0  0  0  0  0  0  0  0  0  0  0  0
   -1.1294   -7.1136   42.9584 H   0  0  0  0  0  0  0  0  0  0  0  0
   -2.2369   -5.1126   41.9965 H   0  0  0  0  0  0  0  0  0  0  0  0
   -1.8866   -4.5097   39.6362 H   0  0  0  0  0  0  0  0  0  0  0  0
    1.0530   -7.2052   37.1401 H   0  0  0  0  0  0  0  0  0  0  0  0
    2.0414   -4.6905   31.1684 H   0  0  0  0  0  0  0  0  0  0  0  0
    1.0616   -3.2631   30.9789 H   0  0  0  0  0  0  0  0  0  0  0  0
    0.4635   -5.3329   29.5872 H   0  0  0  0  0  0  0  0  0  0  0  0
   -0.8466   -4.4526   30.3621 H   0  0  0  0  0  0  0  0  0  0  0  0
    2.9280   -4.0980   33.4236 H   0  0  0  0  0  0  0  0  0  0  0  0
    1.8559   -3.6185   34.7283 H   0  0  0  0  0  0  0  0  0  0  0  0
    2.7090   -1.6959   33.9733 H   0  0  0  0  0  0  0  0  0  0  0  0
    0.6907   -1.2691   32.0628 H   0  0  0  0  0  0  0  0  0  0  0  0
    0.9188   -0.5074   33.6234 H   0  0  0  0  0  0  0  0  0  0  0  0
   -1.2735   -1.7017   33.4553 H   0  0  0  0  0  0  0  0  0  0  0  0
   -0.2733   -2.2881   34.7749 H   0  0  0  0  0  0  0  0  0  0  0  0
   -1.0275   -4.1330   33.9154 H   0  0  0  0  0  0  0  0  0  0  0  0
  1  2  1  0
  2  3  2  0
  3  4  1  0
  4  5  2  0
  5  6  1  0
  6  7  1  0
  7  8  1  0
  8  9  1  0
  9 10  2  0
 10 11  1  0
 11 12  2  0
 12 13  1  0
 13 14  2  0
 14 15  1  0
 15 16  2  0
 16 17  1  0
 17 18  2  0
 12 19  1  0
  7 20  1  0
 20 21  1  0
 21 22  1  0
 20 23  1  0
 23 24  1  0
 24 25  1  0
 25 26  1  0
 26 27  1  0
  6  2  1  0
 19  9  1  0
 27 20  1  0
 22  5  1  0
 18 13  1  0
  1 28  1  0
  1 29  1  0
  7 30  1  0
  8 31  1  0
 14 32  1  0
 15 33  1  0
 16 34  1  0
 17 35  1  0
 18 36  1  0
 19 37  1  0
 21 38  1  0
 21 39  1  0
 22 40  1  0
 22 41  1  0
 23 42  1  0
 23 43  1  0
 24 44  1  0
 25 45  1  0
 25 46  1  0
 26 47  1  0
 26 48  1  0
 27 49  1  0
M  END
>  <Energy>  (685) 
99.584797231527602

>  <compound_id>  (685) 
4297

>  <target_id>  (685) 
1

>  <reference_id>  (685) 
150

>  <inspiration_ids>  (685) 
[150, 105]

>  <energy_score>  (685) 
-54.81473524900164

>  <distance_score>  (685) 
0.5435441990580842

>  <path>  (685) 
/opt/xchem-fragalysis-2/maxwin/BulkDock/SCRATCH/505735/C4297-P150/C4297-P150.minimised.mol

>  <scratch_subdir>  (685) 
/opt/xchem-fragalysis-2/maxwin/BulkDock/SCRATCH/505735/C4297-P150

>  <fragmenstein_runtime>  (685) 
2.4863460063934326

>  <fragmenstein_outcome>  (685) 
acceptable

>  <fragmenstein_mode>  (685) 
expansion

>  <fragmenstein_error>  (685) 


$$$$
C4297-P105
     RDKit          3D

 49 53  0  0  0  0  0  0  0  0999 V2000
   -1.1535   -7.8948   34.2431 N   0  0  0  0  0  0  0  0  0  0  0  0
   -1.0351   -7.5721   32.9461 C   0  0  0  0  0  0  0  0  0  0  0  0
   -1.5622   -8.1527   31.8894 N   0  0  0  0  0  0  0  0  0  0  0  0
   -1.1871   -7.4378   30.7683 N   0  0  0  0  0  0  0  0  0  0  0  0
   -0.4103   -6.4616   31.1776 C   0  0  0  0  0  0  0  0  0  0  0  0
   -0.2471   -6.5490   32.5359 N   0  0  0  0  0  0  0  0  0  0  0  0
    0.8590   -5.8398   33.1707 C   0  0  0  0  0  0  0  0  0  0  0  0
    1.2373   -6.1528   34.5724 N   0  0  0  0  0  0  0  0  0  0  0  0
    0.4413   -5.8241   35.6118 C   0  0  0  0  0  0  0  0  0  0  0  0
   -0.6406   -5.0909   35.6707 N   0  0  0  0  0  0  0  0  0  0  0  0
   -1.1005   -5.1136   36.9665 N   0  0  0  0  0  0  0  0  0  0  0  0
   -0.2968   -5.8776   37.6839 C   0  0  0  0  0  0  0  0  0  0  0  0
   -0.4091   -6.2032   39.1037 C   0  0  0  0  0  0  0  0  0  0  0  0
    0.2073   -7.3368   39.6579 C   0  0  0  0  0  0  0  0  0  0  0  0
    0.0288   -7.6576   41.0072 C   0  0  0  0  0  0  0  0  0  0  0  0
   -0.7645   -6.8504   41.8186 C   0  0  0  0  0  0  0  0  0  0  0  0
   -1.3762   -5.7197   41.2846 C   0  0  0  0  0  0  0  0  0  0  0  0
   -1.1961   -5.3972   39.9372 C   0  0  0  0  0  0  0  0  0  0  0  0
    0.6912   -6.3353   36.8529 N   0  0  0  0  0  0  0  0  0  0  0  0
    0.9394   -4.3080   32.7194 C   0  0  0  0  0  0  0  0  0  0  0  0
    0.3374   -4.1204   31.2812 C   0  0  0  0  0  0  0  0  0  0  0  0
    0.2820   -5.3881   30.4264 C   0  0  0  0  0  0  0  0  0  0  0  0
    2.4607   -3.9058   32.6883 C   0  0  0  0  0  0  0  0  0  0  0  0
    3.0014   -3.6695   34.0379 N   0  0  0  0  0  0  0  0  0  0  0  0
    2.2788   -2.5308   34.6502 C   0  0  0  0  0  0  0  0  0  0  0  0
    0.9102   -2.1959   34.0132 C   0  0  0  0  0  0  0  0  0  0  0  0
    0.1482   -3.3645   33.5612 N   0  0  0  0  0  0  0  0  0  0  0  0
   -1.6755   -8.7617   34.4254 H   0  0  0  0  0  0  0  0  0  0  0  0
   -1.5127   -7.1532   34.8464 H   0  0  0  0  0  0  0  0  0  0  0  0
    1.7019   -6.3098   32.6364 H   0  0  0  0  0  0  0  0  0  0  0  0
    1.5774   -7.1104   34.6146 H   0  0  0  0  0  0  0  0  0  0  0  0
    0.8028   -8.0126   39.0515 H   0  0  0  0  0  0  0  0  0  0  0  0
    0.4947   -8.5481   41.4225 H   0  0  0  0  0  0  0  0  0  0  0  0
   -0.9155   -7.1066   42.8642 H   0  0  0  0  0  0  0  0  0  0  0  0
   -2.0121   -5.0951   41.9072 H   0  0  0  0  0  0  0  0  0  0  0  0
   -1.7068   -4.5239   39.5332 H   0  0  0  0  0  0  0  0  0  0  0  0
    1.4686   -6.9179   37.1127 H   0  0  0  0  0  0  0  0  0  0  0  0
    0.8661   -3.3302   30.7336 H   0  0  0  0  0  0  0  0  0  0  0  0
   -0.7011   -3.7631   31.3666 H   0  0  0  0  0  0  0  0  0  0  0  0
    1.2914   -5.7114   30.1502 H   0  0  0  0  0  0  0  0  0  0  0  0
   -0.2657   -5.1568   29.5114 H   0  0  0  0  0  0  0  0  0  0  0  0
    2.6256   -3.0065   32.0800 H   0  0  0  0  0  0  0  0  0  0  0  0
    3.0555   -4.6903   32.2062 H   0  0  0  0  0  0  0  0  0  0  0  0
    2.7621   -4.4880   34.6056 H   0  0  0  0  0  0  0  0  0  0  0  0
    2.9200   -1.6435   34.6003 H   0  0  0  0  0  0  0  0  0  0  0  0
    2.1367   -2.7567   35.7139 H   0  0  0  0  0  0  0  0  0  0  0  0
    1.0636   -1.5320   33.1531 H   0  0  0  0  0  0  0  0  0  0  0  0
    0.3054   -1.6276   34.7287 H   0  0  0  0  0  0  0  0  0  0  0  0
   -0.2293   -3.8481   34.3864 H   0  0  0  0  0  0  0  0  0  0  0  0
  1  2  1  0
  2  3  2  0
  3  4  1  0
  4  5  2  0
  5  6  1  0
  6  7  1  0
  7  8  1  0
  8  9  1  0
  9 10  2  0
 10 11  1  0
 11 12  2  0
 12 13  1  0
 13 14  2  0
 14 15  1  0
 15 16  2  0
 16 17  1  0
 17 18  2  0
 12 19  1  0
  7 20  1  0
 20 21  1  0
 21 22  1  0
 20 23  1  0
 23 24  1  0
 24 25  1  0
 25 26  1  0
 26 27  1  0
  6  2  1  0
 19  9  1  0
 27 20  1  0
 22  5  1  0
 18 13  1  0
  1 28  1  0
  1 29  1  0
  7 30  1  0
  8 31  1  0
 14 32  1  0
 15 33  1  0
 16 34  1  0
 17 35  1  0
 18 36  1  0
 19 37  1  0
 21 38  1  0
 21 39  1  0
 22 40  1  0
 22 41  1  0
 23 42  1  0
 23 43  1  0
 24 44  1  0
 25 45  1  0
 25 46  1  0
 26 47  1  0
 26 48  1  0
 27 49  1  0
M  END
>  <Energy>  (686) 
104.36275357057582

>  <compound_id>  (686) 
4297

>  <target_id>  (686) 
1

>  <reference_id>  (686) 
105

>  <inspiration_ids>  (686) 
[150, 105]

>  <energy_score>  (686) 
-50.036778909950556

>  <distance_score>  (686) 
0.5179463761360037

>  <path>  (686) 
/opt/xchem-fragalysis-2/maxwin/BulkDock/SCRATCH/505735/C4297-P105/C4297-P105.minimised.mol

>  <scratch_subdir>  (686) 
/opt/xchem-fragalysis-2/maxwin/BulkDock/SCRATCH/505735/C4297-P105

>  <fragmenstein_runtime>  (686) 
1.710169792175293

>  <fragmenstein_outcome>  (686) 
acceptable

>  <fragmenstein_mode>  (686) 
expansion

>  <fragmenstein_error>  (686) 


$$$$
C2335-P150
     RDKit          3D

 60 66  0  0  0  0  0  0  0  0999 V2000
    5.7351   -3.9481   31.8045 C   0  0  0  0  0  0  0  0  0  0  0  0
    5.3492   -4.6732   32.8646 C   0  0  0  0  0  0  0  0  0  0  0  0
    4.0057   -4.6724   33.5466 C   0  0  0  0  0  0  0  0  0  0  0  0
    3.1260   -3.5879   33.1607 N   0  0  0  0  0  0  0  0  0  0  0  0
    3.2206   -2.3020   33.6391 C   0  0  0  0  0  0  0  0  0  0  0  0
    3.8012   -2.0575   34.9322 C   0  0  0  0  0  0  0  0  0  0  0  0
    2.9934   -2.2297   36.0591 C   0  0  0  0  0  0  0  0  0  0  0  0
    3.5743   -2.3891   37.3075 C   0  0  0  0  0  0  0  0  0  0  0  0
    4.9502   -2.3419   37.3860 C   0  0  0  0  0  0  0  0  0  0  0  0
    5.7624   -2.1354   36.3226 N   0  0  0  0  0  0  0  0  0  0  0  0
    5.1678   -1.9935   35.1143 C   0  0  0  0  0  0  0  0  0  0  0  0
    2.4844   -1.5201   32.8845 N   0  0  0  0  0  0  0  0  0  0  0  0
    1.7253   -2.3403   32.0848 N   0  0  0  0  0  0  0  0  0  0  0  0
    1.9748   -3.5943   32.4253 C   0  0  0  0  0  0  0  0  0  0  0  0
    1.2213   -4.7502   32.0897 C   0  0  0  0  0  0  0  0  0  0  0  0
    0.7373   -4.8862   30.7074 C   0  0  0  0  0  0  0  0  0  0  0  0
   -0.1170   -5.8465   30.3295 C   0  0  0  0  0  0  0  0  0  0  0  0
   -0.5947   -6.7629   31.2804 C   0  0  0  0  0  0  0  0  0  0  0  0
   -1.4325   -7.7707   31.2228 N   0  0  0  0  0  0  0  0  0  0  0  0
   -1.6658   -8.1777   32.5160 N   0  0  0  0  0  0  0  0  0  0  0  0
   -0.9567   -7.4138   33.3205 C   0  0  0  0  0  0  0  0  0  0  0  0
   -0.1876   -6.5694   32.5765 N   0  0  0  0  0  0  0  0  0  0  0  0
    0.7489   -5.6326   33.0183 C   0  0  0  0  0  0  0  0  0  0  0  0
    1.0611   -5.7603   34.5073 C   0  0  0  0  0  0  0  0  0  0  0  0
   -0.1311   -6.1994   35.4127 C   0  0  0  0  0  0  0  0  0  0  0  0
   -0.9229   -7.3961   34.7992 C   0  0  0  0  0  0  0  0  0  0  0  0
   -0.9262   -5.0034   35.6630 N   0  0  0  0  0  0  0  0  0  0  0  0
   -1.2098   -5.0049   37.0678 N   0  0  0  0  0  0  0  0  0  0  0  0
   -0.0319   -5.5834   37.6936 C   0  0  0  0  0  0  0  0  0  0  0  0
   -0.3019   -6.1185   39.0947 C   0  0  0  0  0  0  0  0  0  0  0  0
    0.4007   -7.2282   39.6010 C   0  0  0  0  0  0  0  0  0  0  0  0
    0.1576   -7.7134   40.8894 C   0  0  0  0  0  0  0  0  0  0  0  0
   -0.7768   -7.0867   41.7080 C   0  0  0  0  0  0  0  0  0  0  0  0
   -1.4635   -5.9707   41.2417 C   0  0  0  0  0  0  0  0  0  0  0  0
   -1.2225   -5.4870   39.9525 C   0  0  0  0  0  0  0  0  0  0  0  0
    0.3812   -6.6132   36.7389 N   0  0  0  0  0  0  0  0  0  0  0  0
    6.7452   -4.0388   31.4122 H   0  0  0  0  0  0  0  0  0  0  0  0
    5.0789   -3.2459   31.2965 H   0  0  0  0  0  0  0  0  0  0  0  0
    6.0828   -5.3483   33.3058 H   0  0  0  0  0  0  0  0  0  0  0  0
    4.1453   -4.6407   34.6317 H   0  0  0  0  0  0  0  0  0  0  0  0
    3.4960   -5.6058   33.3489 H   0  0  0  0  0  0  0  0  0  0  0  0
    1.9118   -2.3029   35.9554 H   0  0  0  0  0  0  0  0  0  0  0  0
    2.9709   -2.5455   38.1944 H   0  0  0  0  0  0  0  0  0  0  0  0
    5.4610   -2.4553   38.3388 H   0  0  0  0  0  0  0  0  0  0  0  0
    5.8527   -1.8805   34.2783 H   0  0  0  0  0  0  0  0  0  0  0  0
    1.0426   -4.1244   29.9903 H   0  0  0  0  0  0  0  0  0  0  0  0
   -0.5380   -5.8564   29.3391 H   0  0  0  0  0  0  0  0  0  0  0  0
    1.8449   -6.5267   34.5974 H   0  0  0  0  0  0  0  0  0  0  0  0
    1.4923   -4.8338   34.9022 H   0  0  0  0  0  0  0  0  0  0  0  0
   -1.9424   -7.4340   35.1902 H   0  0  0  0  0  0  0  0  0  0  0  0
   -0.4481   -8.3272   35.1129 H   0  0  0  0  0  0  0  0  0  0  0  0
   -1.7878   -4.9714   35.0954 H   0  0  0  0  0  0  0  0  0  0  0  0
   -1.3331   -4.0536   37.4200 H   0  0  0  0  0  0  0  0  0  0  0  0
    0.7656   -4.8317   37.7685 H   0  0  0  0  0  0  0  0  0  0  0  0
    1.1436   -7.7365   38.9892 H   0  0  0  0  0  0  0  0  0  0  0  0
    0.7006   -8.5818   41.2519 H   0  0  0  0  0  0  0  0  0  0  0  0
   -0.9698   -7.4658   42.7079 H   0  0  0  0  0  0  0  0  0  0  0  0
   -2.1999   -5.4803   41.8738 H   0  0  0  0  0  0  0  0  0  0  0  0
   -1.7880   -4.6187   39.6236 H   0  0  0  0  0  0  0  0  0  0  0  0
   -0.1568   -7.4365   37.0188 H   0  0  0  0  0  0  0  0  0  0  0  0
  1  2  2  0
  2  3  1  0
  3  4  1  0
  4  5  1  0
  5  6  1  0
  6  7  2  0
  7  8  1  0
  8  9  2  0
  9 10  1  0
 10 11  2  0
  5 12  2  0
 12 13  1  0
 13 14  2  0
 14 15  1  0
 15 16  1  0
 16 17  2  0
 17 18  1  0
 18 19  2  0
 19 20  1  0
 20 21  2  0
 21 22  1  0
 22 23  1  0
 23 24  1  0
 24 25  1  0
 25 26  1  0
 25 27  1  0
 27 28  1  0
 28 29  1  0
 29 30  1  0
 30 31  2  0
 31 32  1  0
 32 33  2  0
 33 34  1  0
 34 35  2  0
 29 36  1  0
 14  4  1  0
 23 15  2  0
 36 25  1  0
 11  6  1  0
 22 18  1  0
 35 30  1  0
 26 21  1  0
  1 37  1  0
  1 38  1  0
  2 39  1  0
  3 40  1  0
  3 41  1  0
  7 42  1  0
  8 43  1  0
  9 44  1  0
 11 45  1  0
 16 46  1  0
 17 47  1  0
 24 48  1  0
 24 49  1  0
 26 50  1  0
 26 51  1  0
 27 52  1  0
 28 53  1  0
 29 54  1  0
 31 55  1  0
 32 56  1  0
 33 57  1  0
 34 58  1  0
 35 59  1  0
 36 60  1  0
M  END
>  <Energy>  (687) 
123.1302626533173

>  <compound_id>  (687) 
2335

>  <target_id>  (687) 
1

>  <reference_id>  (687) 
150

>  <inspiration_ids>  (687) 
[150, 129]

>  <energy_score>  (687) 
-37.26479498088392

>  <distance_score>  (687) 
1.273508297384018

>  <path>  (687) 
/opt/xchem-fragalysis-2/maxwin/BulkDock/SCRATCH/505735/C2335-P150/C2335-P150.minimised.mol

>  <scratch_subdir>  (687) 
/opt/xchem-fragalysis-2/maxwin/BulkDock/SCRATCH/505735/C2335-P150

>  <fragmenstein_runtime>  (687) 
3.2371792793273926

>  <fragmenstein_outcome>  (687) 
too moved

>  <fragmenstein_mode>  (687) 
expansion

>  <fragmenstein_error>  (687) 


$$$$
C2335-P129
     RDKit          3D

 60 66  0  0  0  0  0  0  0  0999 V2000
    6.0647   -4.1367   32.3073 C   0  0  0  0  0  0  0  0  0  0  0  0
    5.4774   -4.9157   33.2273 C   0  0  0  0  0  0  0  0  0  0  0  0
    4.0257   -4.9362   33.6325 C   0  0  0  0  0  0  0  0  0  0  0  0
    3.2362   -3.8243   33.1426 N   0  0  0  0  0  0  0  0  0  0  0  0
    3.2843   -2.5329   33.6223 C   0  0  0  0  0  0  0  0  0  0  0  0
    3.4906   -2.2915   35.0292 C   0  0  0  0  0  0  0  0  0  0  0  0
    4.7350   -2.3838   35.6406 C   0  0  0  0  0  0  0  0  0  0  0  0
    4.7915   -2.5054   37.0256 C   0  0  0  0  0  0  0  0  0  0  0  0
    3.6038   -2.5047   37.7454 C   0  0  0  0  0  0  0  0  0  0  0  0
    2.3861   -2.3710   37.1857 N   0  0  0  0  0  0  0  0  0  0  0  0
    2.3568   -2.2624   35.8385 C   0  0  0  0  0  0  0  0  0  0  0  0
    2.6929   -1.7535   32.7423 N   0  0  0  0  0  0  0  0  0  0  0  0
    1.9913   -2.5765   31.8953 N   0  0  0  0  0  0  0  0  0  0  0  0
    2.1393   -3.8197   32.3250 C   0  0  0  0  0  0  0  0  0  0  0  0
    1.3274   -4.9468   32.0257 C   0  0  0  0  0  0  0  0  0  0  0  0
    0.8685   -5.1111   30.6409 C   0  0  0  0  0  0  0  0  0  0  0  0
   -0.0269   -6.0397   30.2845 C   0  0  0  0  0  0  0  0  0  0  0  0
   -0.5754   -6.8948   31.2521 C   0  0  0  0  0  0  0  0  0  0  0  0
   -1.4598   -7.8623   31.2041 N   0  0  0  0  0  0  0  0  0  0  0  0
   -1.7283   -8.2282   32.5024 N   0  0  0  0  0  0  0  0  0  0  0  0
   -0.9993   -7.4754   33.3002 C   0  0  0  0  0  0  0  0  0  0  0  0
   -0.1894   -6.6749   32.5489 N   0  0  0  0  0  0  0  0  0  0  0  0
    0.7797   -5.7620   32.9761 C   0  0  0  0  0  0  0  0  0  0  0  0
    1.0414   -5.8359   34.4744 C   0  0  0  0  0  0  0  0  0  0  0  0
   -0.1750   -6.2388   35.3660 C   0  0  0  0  0  0  0  0  0  0  0  0
   -0.9688   -7.4429   34.7787 C   0  0  0  0  0  0  0  0  0  0  0  0
   -0.9743   -5.0375   35.5853 N   0  0  0  0  0  0  0  0  0  0  0  0
   -1.1867   -4.9597   37.0074 N   0  0  0  0  0  0  0  0  0  0  0  0
   -0.0038   -5.5537   37.6182 C   0  0  0  0  0  0  0  0  0  0  0  0
   -0.2378   -6.0393   39.0463 C   0  0  0  0  0  0  0  0  0  0  0  0
    0.3686   -7.2130   39.5370 C   0  0  0  0  0  0  0  0  0  0  0  0
    0.1309   -7.6651   40.8386 C   0  0  0  0  0  0  0  0  0  0  0  0
   -0.6961   -6.9393   41.6897 C   0  0  0  0  0  0  0  0  0  0  0  0
   -1.2765   -5.7569   41.2419 C   0  0  0  0  0  0  0  0  0  0  0  0
   -1.0413   -5.3069   39.9383 C   0  0  0  0  0  0  0  0  0  0  0  0
    0.3312   -6.6358   36.6944 N   0  0  0  0  0  0  0  0  0  0  0  0
    7.1304   -4.2208   32.1092 H   0  0  0  0  0  0  0  0  0  0  0  0
    5.5207   -3.3972   31.7246 H   0  0  0  0  0  0  0  0  0  0  0  0
    6.1072   -5.6301   33.7571 H   0  0  0  0  0  0  0  0  0  0  0  0
    3.9488   -4.9574   34.7241 H   0  0  0  0  0  0  0  0  0  0  0  0
    3.5771   -5.8587   33.2705 H   0  0  0  0  0  0  0  0  0  0  0  0
    5.6482   -2.4178   35.0535 H   0  0  0  0  0  0  0  0  0  0  0  0
    5.7425   -2.6005   37.5390 H   0  0  0  0  0  0  0  0  0  0  0  0
    3.6077   -2.5973   38.8285 H   0  0  0  0  0  0  0  0  0  0  0  0
    1.3572   -2.2059   35.4099 H   0  0  0  0  0  0  0  0  0  0  0  0
    1.2249   -4.3938   29.9024 H   0  0  0  0  0  0  0  0  0  0  0  0
   -0.4297   -6.0656   29.2924 H   0  0  0  0  0  0  0  0  0  0  0  0
    1.8222   -6.5981   34.6137 H   0  0  0  0  0  0  0  0  0  0  0  0
    1.4588   -4.8958   34.8470 H   0  0  0  0  0  0  0  0  0  0  0  0
   -1.9889   -7.4707   35.1766 H   0  0  0  0  0  0  0  0  0  0  0  0
   -0.4887   -8.3692   35.1076 H   0  0  0  0  0  0  0  0  0  0  0  0
   -1.8611   -5.0363   35.0648 H   0  0  0  0  0  0  0  0  0  0  0  0
   -1.2497   -3.9887   37.3224 H   0  0  0  0  0  0  0  0  0  0  0  0
    0.8224   -4.8316   37.6361 H   0  0  0  0  0  0  0  0  0  0  0  0
    1.0224   -7.8068   38.9004 H   0  0  0  0  0  0  0  0  0  0  0  0
    0.5886   -8.5898   41.1799 H   0  0  0  0  0  0  0  0  0  0  0  0
   -0.8887   -7.2930   42.6985 H   0  0  0  0  0  0  0  0  0  0  0  0
   -1.9296   -5.1864   41.8973 H   0  0  0  0  0  0  0  0  0  0  0  0
   -1.5283   -4.3880   39.6199 H   0  0  0  0  0  0  0  0  0  0  0  0
   -0.2544   -7.4128   37.0078 H   0  0  0  0  0  0  0  0  0  0  0  0
  1  2  2  0
  2  3  1  0
  3  4  1  0
  4  5  1  0
  5  6  1  0
  6  7  2  0
  7  8  1  0
  8  9  2  0
  9 10  1  0
 10 11  2  0
  5 12  2  0
 12 13  1  0
 13 14  2  0
 14 15  1  0
 15 16  1  0
 16 17  2  0
 17 18  1  0
 18 19  2  0
 19 20  1  0
 20 21  2  0
 21 22  1  0
 22 23  1  0
 23 24  1  0
 24 25  1  0
 25 26  1  0
 25 27  1  0
 27 28  1  0
 28 29  1  0
 29 30  1  0
 30 31  2  0
 31 32  1  0
 32 33  2  0
 33 34  1  0
 34 35  2  0
 29 36  1  0
 14  4  1  0
 23 15  2  0
 36 25  1  0
 11  6  1  0
 22 18  1  0
 35 30  1  0
 26 21  1  0
  1 37  1  0
  1 38  1  0
  2 39  1  0
  3 40  1  0
  3 41  1  0
  7 42  1  0
  8 43  1  0
  9 44  1  0
 11 45  1  0
 16 46  1  0
 17 47  1  0
 24 48  1  0
 24 49  1  0
 26 50  1  0
 26 51  1  0
 27 52  1  0
 28 53  1  0
 29 54  1  0
 31 55  1  0
 32 56  1  0
 33 57  1  0
 34 58  1  0
 35 59  1  0
 36 60  1  0
M  END
>  <Energy>  (688) 
125.23550359468308

>  <compound_id>  (688) 
2335

>  <target_id>  (688) 
1

>  <reference_id>  (688) 
129

>  <inspiration_ids>  (688) 
[150, 129]

>  <energy_score>  (688) 
-35.15955403952012

>  <distance_score>  (688) 
1.0508269341487915

>  <path>  (688) 
/opt/xchem-fragalysis-2/maxwin/BulkDock/SCRATCH/505735/C2335-P129/C2335-P129.minimised.mol

>  <scratch_subdir>  (688) 
/opt/xchem-fragalysis-2/maxwin/BulkDock/SCRATCH/505735/C2335-P129

>  <fragmenstein_runtime>  (688) 
2.998216390609741

>  <fragmenstein_outcome>  (688) 
too moved

>  <fragmenstein_mode>  (688) 
expansion

>  <fragmenstein_error>  (688) 


$$$$
C4299-P150
     RDKit          3D

 57 63  0  0  0  0  0  0  0  0999 V2000
   -2.0710   -2.4489   31.2731 C   0  0  0  0  0  0  0  0  0  0  0  0
   -1.2633   -3.3438   31.8549 C   0  0  0  0  0  0  0  0  0  0  0  0
    0.1541   -3.5904   31.4314 C   0  0  0  0  0  0  0  0  0  0  0  0
    1.0159   -3.9926   32.5420 N   0  0  0  0  0  0  0  0  0  0  0  0
    1.2064   -5.2631   33.0103 C   0  0  0  0  0  0  0  0  0  0  0  0
    0.3522   -6.3537   32.6637 C   0  0  0  0  0  0  0  0  0  0  0  0
    0.2612   -6.8046   31.3544 C   0  0  0  0  0  0  0  0  0  0  0  0
   -0.6219   -7.8113   31.0580 C   0  0  0  0  0  0  0  0  0  0  0  0
   -1.4244   -8.2730   32.0827 C   0  0  0  0  0  0  0  0  0  0  0  0
   -1.4080   -7.8110   33.3447 N   0  0  0  0  0  0  0  0  0  0  0  0
   -0.4888   -6.8834   33.6280 C   0  0  0  0  0  0  0  0  0  0  0  0
    2.1169   -5.2473   33.9575 N   0  0  0  0  0  0  0  0  0  0  0  0
    2.3526   -3.9325   34.2779 N   0  0  0  0  0  0  0  0  0  0  0  0
    1.5876   -3.1926   33.5054 C   0  0  0  0  0  0  0  0  0  0  0  0
    1.1354   -1.8622   33.5788 C   0  0  0  0  0  0  0  0  0  0  0  0
    1.4620   -0.8417   32.5444 C   0  0  0  0  0  0  0  0  0  0  0  0
    0.6079    0.1539   32.2090 C   0  0  0  0  0  0  0  0  0  0  0  0
   -0.6177    0.2442   32.9142 C   0  0  0  0  0  0  0  0  0  0  0  0
   -1.7778    0.8622   32.7878 N   0  0  0  0  0  0  0  0  0  0  0  0
   -2.6476    0.3648   33.7811 N   0  0  0  0  0  0  0  0  0  0  0  0
   -1.9504   -0.4925   34.4882 C   0  0  0  0  0  0  0  0  0  0  0  0
   -0.7088   -0.5720   33.9921 N   0  0  0  0  0  0  0  0  0  0  0  0
    0.0986   -1.6007   34.4101 C   0  0  0  0  0  0  0  0  0  0  0  0
   -0.6606   -2.2312   35.5870 C   0  0  0  0  0  0  0  0  0  0  0  0
   -2.1372   -1.5549   35.4996 C   0  0  0  0  0  0  0  0  0  0  0  0
    0.0257   -1.7580   36.8030 N   0  0  0  0  0  0  0  0  0  0  0  0
   -0.5000   -2.5927   37.8736 N   0  0  0  0  0  0  0  0  0  0  0  0
   -1.0018   -3.8063   37.2266 C   0  0  0  0  0  0  0  0  0  0  0  0
   -0.5125   -5.0444   37.9476 C   0  0  0  0  0  0  0  0  0  0  0  0
    0.5017   -5.8740   37.4577 C   0  0  0  0  0  0  0  0  0  0  0  0
    0.9375   -6.9774   38.1991 C   0  0  0  0  0  0  0  0  0  0  0  0
    0.3913   -7.2485   39.4527 C   0  0  0  0  0  0  0  0  0  0  0  0
   -0.5939   -6.4168   39.9715 C   0  0  0  0  0  0  0  0  0  0  0  0
   -1.0465   -5.3305   39.2222 C   0  0  0  0  0  0  0  0  0  0  0  0
   -0.6713   -3.6687   35.7992 N   0  0  0  0  0  0  0  0  0  0  0  0
   -3.0753   -2.2727   31.6508 H   0  0  0  0  0  0  0  0  0  0  0  0
   -1.7616   -1.8510   30.4185 H   0  0  0  0  0  0  0  0  0  0  0  0
   -1.6358   -3.8893   32.7177 H   0  0  0  0  0  0  0  0  0  0  0  0
    0.1827   -4.3667   30.6672 H   0  0  0  0  0  0  0  0  0  0  0  0
    0.6042   -2.7145   30.9560 H   0  0  0  0  0  0  0  0  0  0  0  0
    0.8927   -6.3960   30.5728 H   0  0  0  0  0  0  0  0  0  0  0  0
   -0.6377   -8.2341   30.0641 H   0  0  0  0  0  0  0  0  0  0  0  0
   -2.1128   -9.0838   31.9256 H   0  0  0  0  0  0  0  0  0  0  0  0
   -0.4694   -6.5484   34.6610 H   0  0  0  0  0  0  0  0  0  0  0  0
    2.4153   -0.9446   32.0311 H   0  0  0  0  0  0  0  0  0  0  0  0
    0.8280    0.8713   31.4267 H   0  0  0  0  0  0  0  0  0  0  0  0
   -2.4745   -1.1525   36.4598 H   0  0  0  0  0  0  0  0  0  0  0  0
   -2.8747   -2.2807   35.1419 H   0  0  0  0  0  0  0  0  0  0  0  0
    1.0144   -2.0005   36.6632 H   0  0  0  0  0  0  0  0  0  0  0  0
    0.2408   -2.8532   38.5315 H   0  0  0  0  0  0  0  0  0  0  0  0
   -2.0931   -3.7893   37.3170 H   0  0  0  0  0  0  0  0  0  0  0  0
    0.9741   -5.6591   36.5011 H   0  0  0  0  0  0  0  0  0  0  0  0
    1.7123   -7.6243   37.7961 H   0  0  0  0  0  0  0  0  0  0  0  0
    0.7334   -8.1104   40.0184 H   0  0  0  0  0  0  0  0  0  0  0  0
   -1.0221   -6.6188   40.9497 H   0  0  0  0  0  0  0  0  0  0  0  0
   -1.8232   -4.6942   39.6456 H   0  0  0  0  0  0  0  0  0  0  0  0
   -1.4422   -4.0927   35.2797 H   0  0  0  0  0  0  0  0  0  0  0  0
  1  2  2  0
  2  3  1  0
  3  4  1  0
  4  5  1  0
  5  6  1  0
  6  7  2  0
  7  8  1  0
  8  9  2  0
  9 10  1  0
 10 11  2  0
  5 12  2  0
 12 13  1  0
 13 14  2  0
 14 15  1  0
 15 16  1  0
 16 17  2  0
 17 18  1  0
 18 19  2  0
 19 20  1  0
 20 21  2  0
 21 22  1  0
 22 23  1  0
 23 24  1  0
 24 25  1  0
 24 26  1  0
 26 27  1  0
 27 28  1  0
 28 29  1  0
 29 30  2  0
 30 31  1  0
 31 32  2  0
 32 33  1  0
 33 34  2  0
 28 35  1  0
 14  4  1  0
 23 15  2  0
 35 24  1  0
 11  6  1  0
 22 18  1  0
 34 29  1  0
 25 21  1  0
  1 36  1  0
  1 37  1  0
  2 38  1  0
  3 39  1  0
  3 40  1  0
  7 41  1  0
  8 42  1  0
  9 43  1  0
 11 44  1  0
 16 45  1  0
 17 46  1  0
 25 47  1  0
 25 48  1  0
 26 49  1  0
 27 50  1  0
 28 51  1  0
 30 52  1  0
 31 53  1  0
 32 54  1  0
 33 55  1  0
 34 56  1  0
 35 57  1  0
M  END
>  <Energy>  (689) 
112.79344776298332

>  <compound_id>  (689) 
4299

>  <target_id>  (689) 
1

>  <reference_id>  (689) 
150

>  <inspiration_ids>  (689) 
[150, 130]

>  <energy_score>  (689) 
-48.01516246696184

>  <distance_score>  (689) 
3.855990654305029

>  <path>  (689) 
/opt/xchem-fragalysis-2/maxwin/BulkDock/SCRATCH/505735/C4299-P150/C4299-P150.minimised.mol

>  <scratch_subdir>  (689) 
/opt/xchem-fragalysis-2/maxwin/BulkDock/SCRATCH/505735/C4299-P150

>  <fragmenstein_runtime>  (689) 
31.336774110794067

>  <fragmenstein_outcome>  (689) 
too moved

>  <fragmenstein_mode>  (689) 
expansion

>  <fragmenstein_error>  (689) 


$$$$
C4299-P130
     RDKit          3D

 57 63  0  0  0  0  0  0  0  0999 V2000
    2.0704   -4.0824   28.9834 C   0  0  0  0  0  0  0  0  0  0  0  0
    2.0778   -4.9977   29.9630 C   0  0  0  0  0  0  0  0  0  0  0  0
    0.8868   -5.2694   30.8412 C   0  0  0  0  0  0  0  0  0  0  0  0
    1.2151   -5.9703   32.0891 N   0  0  0  0  0  0  0  0  0  0  0  0
    0.7136   -7.1857   32.4660 C   0  0  0  0  0  0  0  0  0  0  0  0
   -0.1946   -7.8809   31.6487 C   0  0  0  0  0  0  0  0  0  0  0  0
    0.2158   -8.3561   30.4176 C   0  0  0  0  0  0  0  0  0  0  0  0
   -0.6163   -8.4471   29.3940 C   0  0  0  0  0  0  0  0  0  0  0  0
   -1.5850   -7.5282   29.5190 C   0  0  0  0  0  0  0  0  0  0  0  0
   -2.1491   -7.3246   30.7171 N   0  0  0  0  0  0  0  0  0  0  0  0
   -1.4916   -7.5930   31.8249 C   0  0  0  0  0  0  0  0  0  0  0  0
    1.1136   -7.5073   33.6669 N   0  0  0  0  0  0  0  0  0  0  0  0
    1.8432   -6.4684   34.1376 N   0  0  0  0  0  0  0  0  0  0  0  0
    1.7601   -5.4894   33.2606 C   0  0  0  0  0  0  0  0  0  0  0  0
    1.7105   -4.0994   33.4729 C   0  0  0  0  0  0  0  0  0  0  0  0
    2.2075   -3.1220   32.4710 C   0  0  0  0  0  0  0  0  0  0  0  0
    1.3946   -2.1772   31.9415 C   0  0  0  0  0  0  0  0  0  0  0  0
    0.0945   -2.0564   32.4896 C   0  0  0  0  0  0  0  0  0  0  0  0
   -1.0567   -1.4919   32.1849 N   0  0  0  0  0  0  0  0  0  0  0  0
   -1.9500   -1.7500   33.2541 N   0  0  0  0  0  0  0  0  0  0  0  0
   -1.2837   -2.4519   34.1479 C   0  0  0  0  0  0  0  0  0  0  0  0
   -0.0689   -2.7144   33.6656 N   0  0  0  0  0  0  0  0  0  0  0  0
    0.6823   -3.7040   34.2636 C   0  0  0  0  0  0  0  0  0  0  0  0
   -0.2296   -4.2779   35.3771 C   0  0  0  0  0  0  0  0  0  0  0  0
   -1.3696   -3.1149   35.4760 C   0  0  0  0  0  0  0  0  0  0  0  0
   -0.8446   -5.5676   35.0609 N   0  0  0  0  0  0  0  0  0  0  0  0
   -1.0631   -6.1928   36.3534 N   0  0  0  0  0  0  0  0  0  0  0  0
    0.1159   -5.8269   37.1210 C   0  0  0  0  0  0  0  0  0  0  0  0
   -0.0932   -6.0302   38.6094 C   0  0  0  0  0  0  0  0  0  0  0  0
    0.3521   -7.2262   39.2083 C   0  0  0  0  0  0  0  0  0  0  0  0
    0.0864   -7.5091   40.5516 C   0  0  0  0  0  0  0  0  0  0  0  0
   -0.6332   -6.6020   41.3233 C   0  0  0  0  0  0  0  0  0  0  0  0
   -1.0852   -5.4140   40.7504 C   0  0  0  0  0  0  0  0  0  0  0  0
   -0.8174   -5.1289   39.4051 C   0  0  0  0  0  0  0  0  0  0  0  0
    0.4139   -4.4601   36.6862 N   0  0  0  0  0  0  0  0  0  0  0  0
    2.9513   -3.8999   28.3743 H   0  0  0  0  0  0  0  0  0  0  0  0
    1.1870   -3.4838   28.7646 H   0  0  0  0  0  0  0  0  0  0  0  0
    2.9892   -5.5585   30.1325 H   0  0  0  0  0  0  0  0  0  0  0  0
    0.3044   -4.3830   31.0862 H   0  0  0  0  0  0  0  0  0  0  0  0
    0.2070   -5.8624   30.2461 H   0  0  0  0  0  0  0  0  0  0  0  0
    1.2093   -8.5645   30.1191 H   0  0  0  0  0  0  0  0  0  0  0  0
   -0.3647   -8.9942   28.5027 H   0  0  0  0  0  0  0  0  0  0  0  0
   -2.1569   -7.1949   28.6638 H   0  0  0  0  0  0  0  0  0  0  0  0
   -1.9203   -7.2962   32.7710 H   0  0  0  0  0  0  0  0  0  0  0  0
    3.2288   -3.2393   32.1178 H   0  0  0  0  0  0  0  0  0  0  0  0
    1.7120   -1.4993   31.1575 H   0  0  0  0  0  0  0  0  0  0  0  0
   -1.0767   -2.3856   36.2445 H   0  0  0  0  0  0  0  0  0  0  0  0
   -2.3483   -3.4818   35.7638 H   0  0  0  0  0  0  0  0  0  0  0  0
   -0.1380   -6.1495   34.5977 H   0  0  0  0  0  0  0  0  0  0  0  0
   -1.8641   -5.7772   36.8304 H   0  0  0  0  0  0  0  0  0  0  0  0
    0.9506   -6.4687   36.8052 H   0  0  0  0  0  0  0  0  0  0  0  0
    0.8775   -7.9759   38.6170 H   0  0  0  0  0  0  0  0  0  0  0  0
    0.4214   -8.4516   40.9799 H   0  0  0  0  0  0  0  0  0  0  0  0
   -0.8545   -6.8258   42.3631 H   0  0  0  0  0  0  0  0  0  0  0  0
   -1.6667   -4.7124   41.3432 H   0  0  0  0  0  0  0  0  0  0  0  0
   -1.2047   -4.2085   38.9744 H   0  0  0  0  0  0  0  0  0  0  0  0
    1.4229   -4.4138   36.5813 H   0  0  0  0  0  0  0  0  0  0  0  0
  1  2  2  0
  2  3  1  0
  3  4  1  0
  4  5  1  0
  5  6  1  0
  6  7  2  0
  7  8  1  0
  8  9  2  0
  9 10  1  0
 10 11  2  0
  5 12  2  0
 12 13  1  0
 13 14  2  0
 14 15  1  0
 15 16  1  0
 16 17  2  0
 17 18  1  0
 18 19  2  0
 19 20  1  0
 20 21  2  0
 21 22  1  0
 22 23  1  0
 23 24  1  0
 24 25  1  0
 24 26  1  0
 26 27  1  0
 27 28  1  0
 28 29  1  0
 29 30  2  0
 30 31  1  0
 31 32  2  0
 32 33  1  0
 33 34  2  0
 28 35  1  0
 14  4  1  0
 23 15  2  0
 35 24  1  0
 11  6  1  0
 22 18  1  0
 34 29  1  0
 25 21  1  0
  1 36  1  0
  1 37  1  0
  2 38  1  0
  3 39  1  0
  3 40  1  0
  7 41  1  0
  8 42  1  0
  9 43  1  0
 11 44  1  0
 16 45  1  0
 17 46  1  0
 25 47  1  0
 25 48  1  0
 26 49  1  0
 27 50  1  0
 28 51  1  0
 30 52  1  0
 31 53  1  0
 32 54  1  0
 33 55  1  0
 34 56  1  0
 35 57  1  0
M  END
>  <Energy>  (690) 
175.27765933012526

>  <compound_id>  (690) 
4299

>  <target_id>  (690) 
1

>  <reference_id>  (690) 
130

>  <inspiration_ids>  (690) 
[150, 130]

>  <energy_score>  (690) 
21.72905564880284

>  <distance_score>  (690) 
2.203829968904599

>  <path>  (690) 
/opt/xchem-fragalysis-2/maxwin/BulkDock/SCRATCH/505735/C4299-P130/C4299-P130.minimised.mol

>  <scratch_subdir>  (690) 
/opt/xchem-fragalysis-2/maxwin/BulkDock/SCRATCH/505735/C4299-P130

>  <fragmenstein_runtime>  (690) 
26.86894464492798

>  <fragmenstein_outcome>  (690) 
too moved

>  <fragmenstein_mode>  (690) 
expansion

>  <fragmenstein_error>  (690) 


$$$$
C4301-P150
     RDKit          3D

 39 41  0  0  0  0  0  0  0  0999 V2000
   -0.2246   -5.9719   38.3760 C   0  0  0  0  0  0  0  0  0  0  0  0
    0.3052   -6.9249   37.3192 C   0  0  0  0  0  0  0  0  0  0  0  0
   -0.2471   -6.6618   35.9210 C   0  0  0  0  0  0  0  0  0  0  0  0
   -0.0280   -5.2268   35.4674 C   0  0  0  0  0  0  0  0  0  0  0  0
   -0.4019   -4.8882   34.0662 C   0  0  0  0  0  0  0  0  0  0  0  0
   -1.0178   -5.5903   33.1096 C   0  0  0  0  0  0  0  0  0  0  0  0
   -1.4971   -6.8738   32.9814 N   0  0  0  0  0  0  0  0  0  0  0  0
   -1.4353   -7.2782   31.6072 N   0  0  0  0  0  0  0  0  0  0  0  0
   -0.5466   -6.2699   30.9934 C   0  0  0  0  0  0  0  0  0  0  0  0
    0.7067   -6.8500   31.3181 N   0  0  0  0  0  0  0  0  0  0  0  0
    1.4769   -6.1412   32.2053 C   0  0  0  0  0  0  0  0  0  0  0  0
    1.7883   -6.6537   33.2815 O   0  0  0  0  0  0  0  0  0  0  0  0
    1.6928   -4.6694   31.8244 C   0  0  0  0  0  0  0  0  0  0  0  0
    2.2282   -4.4709   30.0614 S   0  0  0  0  0  0  0  0  0  0  0  0
    2.8711   -2.7801   30.1387 C   0  0  0  0  0  0  0  0  0  0  0  0
    0.3389   -3.9882   32.0050 C   0  0  0  0  0  0  0  0  0  0  0  0
    0.1395   -3.6138   33.4815 C   0  0  0  0  0  0  0  0  0  0  0  0
   -0.8149   -4.9621   31.7465 C   0  0  0  0  0  0  0  0  0  0  0  0
    0.2067   -4.9725   38.2617 H   0  0  0  0  0  0  0  0  0  0  0  0
   -1.3115   -5.8813   38.3344 H   0  0  0  0  0  0  0  0  0  0  0  0
    0.0487   -6.3306   39.3737 H   0  0  0  0  0  0  0  0  0  0  0  0
    1.4001   -6.8679   37.3022 H   0  0  0  0  0  0  0  0  0  0  0  0
    0.0508   -7.9514   37.6053 H   0  0  0  0  0  0  0  0  0  0  0  0
   -1.3154   -6.8968   35.9015 H   0  0  0  0  0  0  0  0  0  0  0  0
    0.2495   -7.3622   35.2413 H   0  0  0  0  0  0  0  0  0  0  0  0
   -0.5881   -4.5456   36.1192 H   0  0  0  0  0  0  0  0  0  0  0  0
    1.0351   -4.9895   35.6058 H   0  0  0  0  0  0  0  0  0  0  0  0
   -1.1320   -7.5335   33.6766 H   0  0  0  0  0  0  0  0  0  0  0  0
   -2.3771   -7.1979   31.2267 H   0  0  0  0  0  0  0  0  0  0  0  0
   -0.6409   -6.2145   29.9088 H   0  0  0  0  0  0  0  0  0  0  0  0
    0.5372   -7.7776   31.6808 H   0  0  0  0  0  0  0  0  0  0  0  0
    2.4846   -4.2585   32.4586 H   0  0  0  0  0  0  0  0  0  0  0  0
    3.6746   -2.7124   30.8767 H   0  0  0  0  0  0  0  0  0  0  0  0
    2.0792   -2.0708   30.3896 H   0  0  0  0  0  0  0  0  0  0  0  0
    3.2772   -2.5091   29.1604 H   0  0  0  0  0  0  0  0  0  0  0  0
    0.2455   -3.0833   31.3949 H   0  0  0  0  0  0  0  0  0  0  0  0
    1.0740   -3.2893   33.9501 H   0  0  0  0  0  0  0  0  0  0  0  0
   -0.5982   -2.8109   33.5979 H   0  0  0  0  0  0  0  0  0  0  0  0
   -1.6957   -4.4155   31.4086 H   0  0  0  0  0  0  0  0  0  0  0  0
  1  2  1  0
  2  3  1  0
  3  4  1  0
  4  5  1  0
  5  6  2  0
  6  7  1  0
  7  8  1  0
  8  9  1  0
  9 10  1  0
 10 11  1  0
 11 12  2  0
 11 13  1  0
 13 14  1  0
 14 15  1  0
 13 16  1  0
 16 17  1  0
 16 18  1  0
 17  5  1  0
 18  6  1  0
 18  9  1  0
  1 19  1  0
  1 20  1  0
  1 21  1  0
  2 22  1  0
  2 23  1  0
  3 24  1  0
  3 25  1  0
  4 26  1  0
  4 27  1  0
  7 28  1  0
  8 29  1  0
  9 30  1  0
 10 31  1  0
 13 32  1  0
 15 33  1  0
 15 34  1  0
 15 35  1  0
 16 36  1  0
 17 37  1  0
 17 38  1  0
 18 39  1  0
M  END
>  <Energy>  (691) 
49.843675106213574

>  <compound_id>  (691) 
4301

>  <target_id>  (691) 
1

>  <reference_id>  (691) 
150

>  <inspiration_ids>  (691) 
[150, 133]

>  <energy_score>  (691) 
-54.57364774285347

>  <distance_score>  (691) 
1.895186929433964

>  <path>  (691) 
/opt/xchem-fragalysis-2/maxwin/BulkDock/SCRATCH/505735/C4301-P150/C4301-P150.minimised.mol

>  <scratch_subdir>  (691) 
/opt/xchem-fragalysis-2/maxwin/BulkDock/SCRATCH/505735/C4301-P150

>  <fragmenstein_runtime>  (691) 
1.8823480606079102

>  <fragmenstein_outcome>  (691) 
too moved

>  <fragmenstein_mode>  (691) 
expansion

>  <fragmenstein_error>  (691) 


$$$$
C4301-P133
     RDKit          3D

 39 41  0  0  0  0  0  0  0  0999 V2000
   -0.3571   -5.6831   37.9644 C   0  0  0  0  0  0  0  0  0  0  0  0
    0.1053   -4.6369   36.9648 C   0  0  0  0  0  0  0  0  0  0  0  0
   -0.8709   -4.5116   35.7938 C   0  0  0  0  0  0  0  0  0  0  0  0
   -0.4191   -3.6094   34.6310 C   0  0  0  0  0  0  0  0  0  0  0  0
    0.3729   -4.2624   33.5550 C   0  0  0  0  0  0  0  0  0  0  0  0
   -0.0618   -4.9773   32.5117 C   0  0  0  0  0  0  0  0  0  0  0  0
   -1.2849   -5.4161   32.0919 N   0  0  0  0  0  0  0  0  0  0  0  0
   -1.0847   -6.5840   31.2622 N   0  0  0  0  0  0  0  0  0  0  0  0
    0.1829   -7.1297   31.7337 C   0  0  0  0  0  0  0  0  0  0  0  0
   -0.1986   -7.8857   32.8795 N   0  0  0  0  0  0  0  0  0  0  0  0
    0.1105   -7.5015   34.1475 C   0  0  0  0  0  0  0  0  0  0  0  0
   -0.6817   -7.7367   35.0555 O   0  0  0  0  0  0  0  0  0  0  0  0
    1.4523   -6.8034   34.3709 C   0  0  0  0  0  0  0  0  0  0  0  0
    2.7643   -7.9144   34.9880 S   0  0  0  0  0  0  0  0  0  0  0  0
    2.4634   -7.7615   36.7728 C   0  0  0  0  0  0  0  0  0  0  0  0
    1.9459   -5.8989   33.2045 C   0  0  0  0  0  0  0  0  0  0  0  0
    1.8522   -4.4388   33.6764 C   0  0  0  0  0  0  0  0  0  0  0  0
    1.0154   -5.8867   31.9962 C   0  0  0  0  0  0  0  0  0  0  0  0
   -1.3184   -5.4010   38.4029 H   0  0  0  0  0  0  0  0  0  0  0  0
   -0.4638   -6.6637   37.4956 H   0  0  0  0  0  0  0  0  0  0  0  0
    0.3676   -5.7732   38.7797 H   0  0  0  0  0  0  0  0  0  0  0  0
    0.1591   -3.6679   37.4775 H   0  0  0  0  0  0  0  0  0  0  0  0
    1.1255   -4.8471   36.6479 H   0  0  0  0  0  0  0  0  0  0  0  0
   -1.7803   -4.0596   36.2115 H   0  0  0  0  0  0  0  0  0  0  0  0
   -1.1823   -5.4853   35.4205 H   0  0  0  0  0  0  0  0  0  0  0  0
   -1.3196   -3.1876   34.1656 H   0  0  0  0  0  0  0  0  0  0  0  0
    0.1297   -2.7427   35.0196 H   0  0  0  0  0  0  0  0  0  0  0  0
   -1.8811   -5.5776   32.9182 H   0  0  0  0  0  0  0  0  0  0  0  0
   -0.8937   -6.2534   30.3100 H   0  0  0  0  0  0  0  0  0  0  0  0
    0.5938   -7.7970   30.9783 H   0  0  0  0  0  0  0  0  0  0  0  0
   -1.1229   -8.2982   32.8320 H   0  0  0  0  0  0  0  0  0  0  0  0
    1.2686   -6.1702   35.2276 H   0  0  0  0  0  0  0  0  0  0  0  0
    1.4423   -8.0554   37.0216 H   0  0  0  0  0  0  0  0  0  0  0  0
    2.6469   -6.7355   37.1006 H   0  0  0  0  0  0  0  0  0  0  0  0
    3.1561   -8.4155   37.3088 H   0  0  0  0  0  0  0  0  0  0  0  0
    2.9750   -6.1144   32.9226 H   0  0  0  0  0  0  0  0  0  0  0  0
    2.2377   -4.2962   34.6893 H   0  0  0  0  0  0  0  0  0  0  0  0
    2.3821   -3.7496   33.0083 H   0  0  0  0  0  0  0  0  0  0  0  0
    1.4683   -5.4682   31.0894 H   0  0  0  0  0  0  0  0  0  0  0  0
  1  2  1  0
  2  3  1  0
  3  4  1  0
  4  5  1  0
  5  6  2  0
  6  7  1  0
  7  8  1  0
  8  9  1  0
  9 10  1  0
 10 11  1  0
 11 12  2  0
 11 13  1  0
 13 14  1  0
 14 15  1  0
 13 16  1  0
 16 17  1  0
 16 18  1  0
 17  5  1  0
 18  6  1  0
 18  9  1  0
  1 19  1  0
  1 20  1  0
  1 21  1  0
  2 22  1  0
  2 23  1  0
  3 24  1  0
  3 25  1  0
  4 26  1  0
  4 27  1  0
  7 28  1  0
  8 29  1  0
  9 30  1  0
 10 31  1  0
 13 32  1  0
 15 33  1  0
 15 34  1  0
 15 35  1  0
 16 36  1  0
 17 37  1  0
 17 38  1  0
 18 39  1  0
M  END
>  <Energy>  (692) 
48.961190254400591

>  <compound_id>  (692) 
4301

>  <target_id>  (692) 
1

>  <reference_id>  (692) 
133

>  <inspiration_ids>  (692) 
[150, 133]

>  <energy_score>  (692) 
-55.456132594666286

>  <distance_score>  (692) 
1.7478119894758735

>  <path>  (692) 
/opt/xchem-fragalysis-2/maxwin/BulkDock/SCRATCH/505735/C4301-P133/C4301-P133.minimised.mol

>  <scratch_subdir>  (692) 
/opt/xchem-fragalysis-2/maxwin/BulkDock/SCRATCH/505735/C4301-P133

>  <fragmenstein_runtime>  (692) 
1.678518533706665

>  <fragmenstein_outcome>  (692) 
too moved

>  <fragmenstein_mode>  (692) 
expansion

>  <fragmenstein_error>  (692) 


$$$$
C2646-P150
     RDKit          3D

 56 61  0  0  0  0  0  0  0  0999 V2000
   -0.9418   -0.0077   31.7564 O   0  0  0  0  0  0  0  0  0  0  0  0
   -1.1206   -1.1968   31.8351 C   0  0  0  0  0  0  0  0  0  0  0  0
   -1.5697   -1.8288   33.1780 C   0  0  0  0  0  0  0  0  0  0  0  0
   -0.4146   -1.3127   34.4948 S   0  0  0  0  0  0  0  0  0  0  0  0
   -3.2193   -1.2604   33.5376 Cl  0  0  0  0  0  0  0  0  0  0  0  0
   -0.9937   -2.2307   30.8393 N   0  0  0  0  0  0  0  0  0  0  0  0
   -0.7066   -2.1402   29.3435 C   0  0  0  0  0  0  0  0  0  0  0  0
    0.2502   -1.0678   28.9374 C   0  0  0  0  0  0  0  0  0  0  0  0
    0.1055    0.0057   28.0180 C   0  0  0  0  0  0  0  0  0  0  0  0
    1.2650    0.7525   27.9253 C   0  0  0  0  0  0  0  0  0  0  0  0
    2.5038    0.1512   28.9557 S   0  0  0  0  0  0  0  0  0  0  0  0
    1.4848   -1.0608   29.5128 C   0  0  0  0  0  0  0  0  0  0  0  0
    1.7673   -2.0292   30.5711 C   0  0  0  0  0  0  0  0  0  0  0  0
    0.4331   -2.8091   30.8610 C   0  0  0  0  0  0  0  0  0  0  0  0
    0.4863   -4.2636   30.5787 N   0  0  0  0  0  0  0  0  0  0  0  0
    0.6103   -5.1996   31.6069 C   0  0  0  0  0  0  0  0  0  0  0  0
    1.4166   -5.0166   32.6754 C   0  0  0  0  0  0  0  0  0  0  0  0
    1.3070   -5.8124   33.8776 C   0  0  0  0  0  0  0  0  0  0  0  0
    0.3587   -6.7693   33.9881 C   0  0  0  0  0  0  0  0  0  0  0  0
    0.0908   -7.4489   35.1739 N   0  0  0  0  0  0  0  0  0  0  0  0
    0.1372   -6.8394   36.3841 C   0  0  0  0  0  0  0  0  0  0  0  0
    0.2916   -5.5685   36.6781 N   0  0  0  0  0  0  0  0  0  0  0  0
    0.1765   -5.4242   38.0333 N   0  0  0  0  0  0  0  0  0  0  0  0
    0.0002   -6.6186   38.5609 C   0  0  0  0  0  0  0  0  0  0  0  0
   -0.2353   -6.9170   39.9658 C   0  0  0  0  0  0  0  0  0  0  0  0
    0.1676   -8.1277   40.5417 C   0  0  0  0  0  0  0  0  0  0  0  0
   -0.1123   -8.3996   41.8828 C   0  0  0  0  0  0  0  0  0  0  0  0
   -0.7951   -7.4641   42.6581 C   0  0  0  0  0  0  0  0  0  0  0  0
   -1.1904   -6.2516   42.0990 C   0  0  0  0  0  0  0  0  0  0  0  0
   -0.9059   -5.9773   40.7612 C   0  0  0  0  0  0  0  0  0  0  0  0
   -0.0007   -7.5432   37.5442 N   0  0  0  0  0  0  0  0  0  0  0  0
   -0.3711   -7.0491   32.8206 N   0  0  0  0  0  0  0  0  0  0  0  0
   -1.3580   -7.9561   32.5602 C   0  0  0  0  0  0  0  0  0  0  0  0
   -1.6701   -7.9450   31.2859 N   0  0  0  0  0  0  0  0  0  0  0  0
   -0.9478   -6.9453   30.6909 N   0  0  0  0  0  0  0  0  0  0  0  0
   -0.2162   -6.3691   31.6219 C   0  0  0  0  0  0  0  0  0  0  0  0
   -1.5944   -2.9205   33.1236 H   0  0  0  0  0  0  0  0  0  0  0  0
   -0.5567    0.0016   34.2584 H   0  0  0  0  0  0  0  0  0  0  0  0
   -1.6844   -1.8051   28.9632 H   0  0  0  0  0  0  0  0  0  0  0  0
   -0.5643   -3.0851   28.8058 H   0  0  0  0  0  0  0  0  0  0  0  0
   -0.7920    0.2173   27.4474 H   0  0  0  0  0  0  0  0  0  0  0  0
    1.4453    1.6204   27.3065 H   0  0  0  0  0  0  0  0  0  0  0  0
    2.5688   -2.7200   30.2873 H   0  0  0  0  0  0  0  0  0  0  0  0
    2.0882   -1.4940   31.4745 H   0  0  0  0  0  0  0  0  0  0  0  0
    0.5473   -2.8106   31.9520 H   0  0  0  0  0  0  0  0  0  0  0  0
   -0.2268   -4.5837   29.9192 H   0  0  0  0  0  0  0  0  0  0  0  0
    2.0946   -4.1705   32.7414 H   0  0  0  0  0  0  0  0  0  0  0  0
    1.9316   -5.5198   34.7180 H   0  0  0  0  0  0  0  0  0  0  0  0
   -0.4979   -8.2821   35.0961 H   0  0  0  0  0  0  0  0  0  0  0  0
    0.7106   -8.8664   39.9604 H   0  0  0  0  0  0  0  0  0  0  0  0
    0.2043   -9.3391   42.3280 H   0  0  0  0  0  0  0  0  0  0  0  0
   -1.0148   -7.6760   43.7017 H   0  0  0  0  0  0  0  0  0  0  0  0
   -1.7214   -5.5182   42.7008 H   0  0  0  0  0  0  0  0  0  0  0  0
   -1.2264   -5.0279   40.3338 H   0  0  0  0  0  0  0  0  0  0  0  0
   -0.1437   -8.5399   37.6291 H   0  0  0  0  0  0  0  0  0  0  0  0
   -1.8053   -8.5854   33.3096 H   0  0  0  0  0  0  0  0  0  0  0  0
  1  2  2  0
  2  3  1  0
  3  4  1  0
  3  5  1  0
  2  6  1  0
  6  7  1  0
  7  8  1  0
  8  9  1  0
  9 10  2  0
 10 11  1  0
 11 12  1  0
 12 13  1  0
 13 14  1  0
 14 15  1  0
 15 16  1  0
 16 17  2  0
 17 18  1  0
 18 19  2  0
 19 20  1  0
 20 21  1  0
 21 22  2  0
 22 23  1  0
 23 24  2  0
 24 25  1  0
 25 26  2  0
 26 27  1  0
 27 28  2  0
 28 29  1  0
 29 30  2  0
 24 31  1  0
 19 32  1  0
 32 33  1  0
 33 34  2  0
 34 35  1  0
 35 36  2  0
 14  6  1  0
 36 16  1  0
 12  8  2  0
 31 21  1  0
 36 32  1  0
 30 25  1  0
  3 37  1  0
  4 38  1  0
  7 39  1  0
  7 40  1  0
  9 41  1  0
 10 42  1  0
 13 43  1  0
 13 44  1  0
 14 45  1  0
 15 46  1  0
 17 47  1  0
 18 48  1  0
 20 49  1  0
 26 50  1  0
 27 51  1  0
 28 52  1  0
 29 53  1  0
 30 54  1  0
 31 55  1  0
 33 56  1  0
M  END
>  <Energy>  (693) 
155.81698234598389

>  <compound_id>  (693) 
2646

>  <target_id>  (693) 
1

>  <reference_id>  (693) 
150

>  <inspiration_ids>  (693) 
[150, 136]

>  <energy_score>  (693) 
9.921029603647241

>  <distance_score>  (693) 
2.8242318762784375

>  <path>  (693) 
/opt/xchem-fragalysis-2/maxwin/BulkDock/SCRATCH/505735/C2646-P150/C2646-P150.minimised.mol

>  <scratch_subdir>  (693) 
/opt/xchem-fragalysis-2/maxwin/BulkDock/SCRATCH/505735/C2646-P150

>  <fragmenstein_runtime>  (693) 
6.7605438232421875

>  <fragmenstein_outcome>  (693) 
too moved

>  <fragmenstein_mode>  (693) 
expansion

>  <fragmenstein_error>  (693) 


$$$$
C2646-P136
     RDKit          3D

 56 61  0  0  0  0  0  0  0  0999 V2000
    1.6642    0.3547   34.5293 O   0  0  0  0  0  0  0  0  0  0  0  0
    1.2113   -0.6832   34.1116 C   0  0  0  0  0  0  0  0  0  0  0  0
    0.8353   -1.7992   35.1199 C   0  0  0  0  0  0  0  0  0  0  0  0
    2.1841   -2.1351   36.2967 S   0  0  0  0  0  0  0  0  0  0  0  0
   -0.5867   -1.1962   36.0482 Cl  0  0  0  0  0  0  0  0  0  0  0  0
    0.8467   -1.0706   32.7794 N   0  0  0  0  0  0  0  0  0  0  0  0
    0.8054   -0.2773   31.5102 C   0  0  0  0  0  0  0  0  0  0  0  0
    0.1357   -1.0005   30.4120 C   0  0  0  0  0  0  0  0  0  0  0  0
   -1.0577   -0.7621   29.6869 C   0  0  0  0  0  0  0  0  0  0  0  0
   -1.2673   -1.7547   28.7481 C   0  0  0  0  0  0  0  0  0  0  0  0
   -0.0651   -2.9830   28.8175 S   0  0  0  0  0  0  0  0  0  0  0  0
    0.7646   -2.1259   29.9848 C   0  0  0  0  0  0  0  0  0  0  0  0
    2.0210   -2.4892   30.6302 C   0  0  0  0  0  0  0  0  0  0  0  0
    2.0937   -1.7548   32.0441 C   0  0  0  0  0  0  0  0  0  0  0  0
    2.6665   -2.7551   32.9558 N   0  0  0  0  0  0  0  0  0  0  0  0
    2.3145   -4.0811   33.2092 C   0  0  0  0  0  0  0  0  0  0  0  0
    3.1893   -4.8376   33.9153 C   0  0  0  0  0  0  0  0  0  0  0  0
    2.8246   -6.0826   34.5591 C   0  0  0  0  0  0  0  0  0  0  0  0
    1.5463   -6.5011   34.4925 C   0  0  0  0  0  0  0  0  0  0  0  0
    1.0084   -7.4136   35.3951 N   0  0  0  0  0  0  0  0  0  0  0  0
    0.3651   -6.8603   36.4672 C   0  0  0  0  0  0  0  0  0  0  0  0
   -0.0740   -5.6311   36.6205 N   0  0  0  0  0  0  0  0  0  0  0  0
   -0.3699   -5.4517   37.9439 N   0  0  0  0  0  0  0  0  0  0  0  0
   -0.1348   -6.5837   38.5816 C   0  0  0  0  0  0  0  0  0  0  0  0
   -0.2934   -6.8230   40.0135 C   0  0  0  0  0  0  0  0  0  0  0  0
    0.1188   -8.0155   40.6246 C   0  0  0  0  0  0  0  0  0  0  0  0
   -0.0853   -8.2195   41.9919 C   0  0  0  0  0  0  0  0  0  0  0  0
   -0.7014   -7.2362   42.7626 C   0  0  0  0  0  0  0  0  0  0  0  0
   -1.1125   -6.0458   42.1702 C   0  0  0  0  0  0  0  0  0  0  0  0
   -0.9064   -5.8401   40.8055 C   0  0  0  0  0  0  0  0  0  0  0  0
    0.2344   -7.5259   37.6504 N   0  0  0  0  0  0  0  0  0  0  0  0
    0.6913   -5.8365   33.5992 N   0  0  0  0  0  0  0  0  0  0  0  0
   -0.5856   -6.1300   33.2033 C   0  0  0  0  0  0  0  0  0  0  0  0
   -0.9703   -5.2947   32.2676 N   0  0  0  0  0  0  0  0  0  0  0  0
    0.0419   -4.3747   32.0964 N   0  0  0  0  0  0  0  0  0  0  0  0
    1.0384   -4.6905   32.9005 C   0  0  0  0  0  0  0  0  0  0  0  0
    0.4950   -2.7111   34.6376 H   0  0  0  0  0  0  0  0  0  0  0  0
    1.4484   -2.9476   37.0724 H   0  0  0  0  0  0  0  0  0  0  0  0
    1.7066    0.2963   31.2398 H   0  0  0  0  0  0  0  0  0  0  0  0
    0.1236    0.5439   31.7849 H   0  0  0  0  0  0  0  0  0  0  0  0
   -1.7337    0.0726   29.8299 H   0  0  0  0  0  0  0  0  0  0  0  0
   -2.0780   -1.8409   28.0371 H   0  0  0  0  0  0  0  0  0  0  0  0
    2.1485   -3.5739   30.6779 H   0  0  0  0  0  0  0  0  0  0  0  0
    2.8638   -2.1286   30.0246 H   0  0  0  0  0  0  0  0  0  0  0  0
    2.9065   -1.0071   32.0063 H   0  0  0  0  0  0  0  0  0  0  0  0
    3.5648   -2.4746   33.3429 H   0  0  0  0  0  0  0  0  0  0  0  0
    4.1564   -4.4340   34.2068 H   0  0  0  0  0  0  0  0  0  0  0  0
    3.5280   -6.4910   35.2776 H   0  0  0  0  0  0  0  0  0  0  0  0
    1.6976   -8.0985   35.6867 H   0  0  0  0  0  0  0  0  0  0  0  0
    0.5958   -8.8084   40.0565 H   0  0  0  0  0  0  0  0  0  0  0  0
    0.2325   -9.1493   42.4566 H   0  0  0  0  0  0  0  0  0  0  0  0
   -0.8642   -7.3971   43.8253 H   0  0  0  0  0  0  0  0  0  0  0  0
   -1.6005   -5.2768   42.7638 H   0  0  0  0  0  0  0  0  0  0  0  0
   -1.2525   -4.9103   40.3539 H   0  0  0  0  0  0  0  0  0  0  0  0
    0.3702   -8.5147   37.8072 H   0  0  0  0  0  0  0  0  0  0  0  0
   -1.1541   -6.9562   33.6039 H   0  0  0  0  0  0  0  0  0  0  0  0
  1  2  2  0
  2  3  1  0
  3  4  1  0
  3  5  1  0
  2  6  1  0
  6  7  1  0
  7  8  1  0
  8  9  1  0
  9 10  2  0
 10 11  1  0
 11 12  1  0
 12 13  1  0
 13 14  1  0
 14 15  1  0
 15 16  1  0
 16 17  2  0
 17 18  1  0
 18 19  2  0
 19 20  1  0
 20 21  1  0
 21 22  2  0
 22 23  1  0
 23 24  2  0
 24 25  1  0
 25 26  2  0
 26 27  1  0
 27 28  2  0
 28 29  1  0
 29 30  2  0
 24 31  1  0
 19 32  1  0
 32 33  1  0
 33 34  2  0
 34 35  1  0
 35 36  2  0
 14  6  1  0
 36 16  1  0
 12  8  2  0
 31 21  1  0
 36 32  1  0
 30 25  1  0
  3 37  1  0
  4 38  1  0
  7 39  1  0
  7 40  1  0
  9 41  1  0
 10 42  1  0
 13 43  1  0
 13 44  1  0
 14 45  1  0
 15 46  1  0
 17 47  1  0
 18 48  1  0
 20 49  1  0
 26 50  1  0
 27 51  1  0
 28 52  1  0
 29 53  1  0
 30 54  1  0
 31 55  1  0
 33 56  1  0
M  END
>  <Energy>  (694) 
163.08470358704804

>  <compound_id>  (694) 
2646

>  <target_id>  (694) 
1

>  <reference_id>  (694) 
136

>  <inspiration_ids>  (694) 
[150, 136]

>  <energy_score>  (694) 
17.188750844710967

>  <distance_score>  (694) 
2.394712626361178

>  <path>  (694) 
/opt/xchem-fragalysis-2/maxwin/BulkDock/SCRATCH/505735/C2646-P136/C2646-P136.minimised.mol

>  <scratch_subdir>  (694) 
/opt/xchem-fragalysis-2/maxwin/BulkDock/SCRATCH/505735/C2646-P136

>  <fragmenstein_runtime>  (694) 
5.707887649536133

>  <fragmenstein_outcome>  (694) 
too moved

>  <fragmenstein_mode>  (694) 
expansion

>  <fragmenstein_error>  (694) 


$$$$
C4305-P150
     RDKit          3D

 46 50  0  0  0  0  0  0  0  0999 V2000
    1.1595   -3.0098   28.4809 O   0  0  0  0  0  0  0  0  0  0  0  0
    1.1566   -1.8855   29.3874 S   0  0  0  0  0  0  0  0  0  0  0  0
    2.3930   -1.2513   29.7870 O   0  0  0  0  0  0  0  0  0  0  0  0
    0.4007   -2.3815   30.8175 N   0  0  0  0  0  0  0  0  0  0  0  0
    1.2786   -3.2077   31.6647 C   0  0  0  0  0  0  0  0  0  0  0  0
    0.6968   -4.5806   31.8419 C   0  0  0  0  0  0  0  0  0  0  0  0
    0.7494   -5.1190   33.2031 C   0  0  0  0  0  0  0  0  0  0  0  0
    0.1608   -6.2951   33.5074 C   0  0  0  0  0  0  0  0  0  0  0  0
    0.1543   -6.8891   34.7613 N   0  0  0  0  0  0  0  0  0  0  0  0
   -0.0531   -6.2260   35.9169 C   0  0  0  0  0  0  0  0  0  0  0  0
   -0.2963   -4.9592   36.1519 N   0  0  0  0  0  0  0  0  0  0  0  0
   -0.5360   -4.8195   37.4973 N   0  0  0  0  0  0  0  0  0  0  0  0
   -0.3716   -5.9956   38.0716 C   0  0  0  0  0  0  0  0  0  0  0  0
   -0.5304   -6.3278   39.4796 C   0  0  0  0  0  0  0  0  0  0  0  0
    0.0639   -7.4699   40.0386 C   0  0  0  0  0  0  0  0  0  0  0  0
   -0.1605   -7.8015   41.3756 C   0  0  0  0  0  0  0  0  0  0  0  0
   -0.9766   -6.9955   42.1656 C   0  0  0  0  0  0  0  0  0  0  0  0
   -1.5595   -5.8515   41.6257 C   0  0  0  0  0  0  0  0  0  0  0  0
   -1.3308   -5.5149   40.2916 C   0  0  0  0  0  0  0  0  0  0  0  0
   -0.0879   -6.9115   37.0940 N   0  0  0  0  0  0  0  0  0  0  0  0
   -0.4719   -6.9620   32.4546 N   0  0  0  0  0  0  0  0  0  0  0  0
   -1.2780   -8.0587   32.4587 C   0  0  0  0  0  0  0  0  0  0  0  0
   -1.5589   -8.4102   31.2321 N   0  0  0  0  0  0  0  0  0  0  0  0
   -1.0321   -7.4669   30.3894 N   0  0  0  0  0  0  0  0  0  0  0  0
   -0.4349   -6.5622   31.1325 C   0  0  0  0  0  0  0  0  0  0  0  0
    0.1571   -5.3106   30.8405 C   0  0  0  0  0  0  0  0  0  0  0  0
    0.1464   -0.6562   28.6664 C   0  0  0  0  0  0  0  0  0  0  0  0
   -1.0213   -0.6591   27.9332 C   0  0  0  0  0  0  0  0  0  0  0  0
   -1.3646    0.6735   27.5638 C   0  0  0  0  0  0  0  0  0  0  0  0
   -0.5782    1.6469   28.0128 N   0  0  0  0  0  0  0  0  0  0  0  0
    0.6510    0.9582   28.8743 S   0  0  0  0  0  0  0  0  0  0  0  0
    0.0174   -1.5864   31.3276 H   0  0  0  0  0  0  0  0  0  0  0  0
    2.2947   -3.3107   31.2675 H   0  0  0  0  0  0  0  0  0  0  0  0
    1.3747   -2.6856   32.6248 H   0  0  0  0  0  0  0  0  0  0  0  0
    1.2616   -4.5461   33.9726 H   0  0  0  0  0  0  0  0  0  0  0  0
   -0.1166   -7.8706   34.7626 H   0  0  0  0  0  0  0  0  0  0  0  0
    0.7046   -8.1205   39.4499 H   0  0  0  0  0  0  0  0  0  0  0  0
    0.2991   -8.6885   41.8033 H   0  0  0  0  0  0  0  0  0  0  0  0
   -1.1567   -7.2546   43.2062 H   0  0  0  0  0  0  0  0  0  0  0  0
   -2.1988   -5.2220   42.2399 H   0  0  0  0  0  0  0  0  0  0  0  0
   -1.8055   -4.6252   39.8809 H   0  0  0  0  0  0  0  0  0  0  0  0
    0.0108   -7.9082   37.2174 H   0  0  0  0  0  0  0  0  0  0  0  0
   -1.6328   -8.5461   33.3511 H   0  0  0  0  0  0  0  0  0  0  0  0
    0.1105   -4.9489   29.8180 H   0  0  0  0  0  0  0  0  0  0  0  0
   -1.5563   -1.5539   27.6369 H   0  0  0  0  0  0  0  0  0  0  0  0
   -2.2034    0.9779   26.9523 H   0  0  0  0  0  0  0  0  0  0  0  0
  1  2  2  0
  2  3  2  0
  2  4  1  0
  4  5  1  0
  5  6  1  0
  6  7  1  0
  7  8  2  0
  8  9  1  0
  9 10  1  0
 10 11  2  0
 11 12  1  0
 12 13  2  0
 13 14  1  0
 14 15  2  0
 15 16  1  0
 16 17  2  0
 17 18  1  0
 18 19  2  0
 13 20  1  0
  8 21  1  0
 21 22  1  0
 22 23  2  0
 23 24  1  0
 24 25  2  0
 25 26  1  0
  2 27  1  0
 27 28  2  0
 28 29  1  0
 29 30  2  0
 30 31  1  0
 26  6  2  0
 31 27  1  0
 20 10  1  0
 25 21  1  0
 19 14  1  0
  4 32  1  0
  5 33  1  0
  5 34  1  0
  7 35  1  0
  9 36  1  0
 15 37  1  0
 16 38  1  0
 17 39  1  0
 18 40  1  0
 19 41  1  0
 20 42  1  0
 22 43  1  0
 26 44  1  0
 28 45  1  0
 29 46  1  0
M  END
>  <Energy>  (695) 
-34.935325431291496

>  <compound_id>  (695) 
4305

>  <target_id>  (695) 
1

>  <reference_id>  (695) 
150

>  <inspiration_ids>  (695) 
[150, 141]

>  <energy_score>  (695) 
-81.52876414421152

>  <distance_score>  (695) 
0.7915741312115587

>  <path>  (695) 
/opt/xchem-fragalysis-2/maxwin/BulkDock/SCRATCH/505735/C4305-P150/C4305-P150.minimised.mol

>  <scratch_subdir>  (695) 
/opt/xchem-fragalysis-2/maxwin/BulkDock/SCRATCH/505735/C4305-P150

>  <fragmenstein_runtime>  (695) 
4.349524021148682

>  <fragmenstein_outcome>  (695) 
acceptable

>  <fragmenstein_mode>  (695) 
expansion

>  <fragmenstein_error>  (695) 


$$$$
C4305-P141
     RDKit          3D

 46 50  0  0  0  0  0  0  0  0999 V2000
    1.1383   -3.0120   28.4790 O   0  0  0  0  0  0  0  0  0  0  0  0
    1.0331   -1.8654   29.3520 S   0  0  0  0  0  0  0  0  0  0  0  0
    2.2054   -1.1134   29.7399 O   0  0  0  0  0  0  0  0  0  0  0  0
    0.3391   -2.4053   30.7986 N   0  0  0  0  0  0  0  0  0  0  0  0
    1.2704   -3.2403   31.5795 C   0  0  0  0  0  0  0  0  0  0  0  0
    0.6983   -4.6170   31.7631 C   0  0  0  0  0  0  0  0  0  0  0  0
    0.7553   -5.1480   33.1243 C   0  0  0  0  0  0  0  0  0  0  0  0
    0.1673   -6.3221   33.4363 C   0  0  0  0  0  0  0  0  0  0  0  0
    0.1853   -6.9038   34.6967 N   0  0  0  0  0  0  0  0  0  0  0  0
    0.0166   -6.2257   35.8516 C   0  0  0  0  0  0  0  0  0  0  0  0
   -0.2910   -4.9707   36.0725 N   0  0  0  0  0  0  0  0  0  0  0  0
   -0.4699   -4.8138   37.4262 N   0  0  0  0  0  0  0  0  0  0  0  0
   -0.2132   -5.9656   38.0177 C   0  0  0  0  0  0  0  0  0  0  0  0
   -0.3394   -6.2939   39.4335 C   0  0  0  0  0  0  0  0  0  0  0  0
    0.1716   -7.4876   39.9689 C   0  0  0  0  0  0  0  0  0  0  0  0
   -0.0672   -7.8272   41.3022 C   0  0  0  0  0  0  0  0  0  0  0  0
   -0.8095   -6.9766   42.1170 C   0  0  0  0  0  0  0  0  0  0  0  0
   -1.3047   -5.7803   41.6049 C   0  0  0  0  0  0  0  0  0  0  0  0
   -1.0642   -5.4378   40.2734 C   0  0  0  0  0  0  0  0  0  0  0  0
    0.1172   -6.8727   37.0462 N   0  0  0  0  0  0  0  0  0  0  0  0
   -0.4762   -6.9934   32.3889 N   0  0  0  0  0  0  0  0  0  0  0  0
   -1.2993   -8.0799   32.3988 C   0  0  0  0  0  0  0  0  0  0  0  0
   -1.6056   -8.4316   31.1761 N   0  0  0  0  0  0  0  0  0  0  0  0
   -1.0594   -7.5021   30.3294 N   0  0  0  0  0  0  0  0  0  0  0  0
   -0.4393   -6.6034   31.0644 C   0  0  0  0  0  0  0  0  0  0  0  0
    0.1633   -5.3564   30.7655 C   0  0  0  0  0  0  0  0  0  0  0  0
   -0.0996   -0.7618   28.6103 C   0  0  0  0  0  0  0  0  0  0  0  0
   -1.3303   -0.8982   28.0016 C   0  0  0  0  0  0  0  0  0  0  0  0
   -1.7638    0.3578   27.4922 C   0  0  0  0  0  0  0  0  0  0  0  0
   -0.9964    1.4119   27.7575 N   0  0  0  0  0  0  0  0  0  0  0  0
    0.3383    0.8844   28.5800 S   0  0  0  0  0  0  0  0  0  0  0  0
   -0.0103   -1.6178   31.3446 H   0  0  0  0  0  0  0  0  0  0  0  0
    2.2613   -3.3320   31.1202 H   0  0  0  0  0  0  0  0  0  0  0  0
    1.4236   -2.7340   32.5406 H   0  0  0  0  0  0  0  0  0  0  0  0
    1.2762   -4.5739   33.8870 H   0  0  0  0  0  0  0  0  0  0  0  0
   -0.0633   -7.8883   34.7087 H   0  0  0  0  0  0  0  0  0  0  0  0
    0.7478   -8.1889   39.3712 H   0  0  0  0  0  0  0  0  0  0  0  0
    0.3198   -8.7630   41.7007 H   0  0  0  0  0  0  0  0  0  0  0  0
   -1.0007   -7.2454   43.1530 H   0  0  0  0  0  0  0  0  0  0  0  0
   -1.8889   -5.1154   42.2360 H   0  0  0  0  0  0  0  0  0  0  0  0
   -1.4866   -4.5133   39.8817 H   0  0  0  0  0  0  0  0  0  0  0  0
    0.3275   -7.8467   37.1918 H   0  0  0  0  0  0  0  0  0  0  0  0
   -1.6560   -8.5503   33.2972 H   0  0  0  0  0  0  0  0  0  0  0  0
    0.1198   -4.9994   29.7418 H   0  0  0  0  0  0  0  0  0  0  0  0
   -1.8444   -1.8402   27.8601 H   0  0  0  0  0  0  0  0  0  0  0  0
   -2.6593    0.5341   26.9099 H   0  0  0  0  0  0  0  0  0  0  0  0
  1  2  2  0
  2  3  2  0
  2  4  1  0
  4  5  1  0
  5  6  1  0
  6  7  1  0
  7  8  2  0
  8  9  1  0
  9 10  1  0
 10 11  2  0
 11 12  1  0
 12 13  2  0
 13 14  1  0
 14 15  2  0
 15 16  1  0
 16 17  2  0
 17 18  1  0
 18 19  2  0
 13 20  1  0
  8 21  1  0
 21 22  1  0
 22 23  2  0
 23 24  1  0
 24 25  2  0
 25 26  1  0
  2 27  1  0
 27 28  2  0
 28 29  1  0
 29 30  2  0
 30 31  1  0
 26  6  2  0
 31 27  1  0
 20 10  1  0
 25 21  1  0
 19 14  1  0
  4 32  1  0
  5 33  1  0
  5 34  1  0
  7 35  1  0
  9 36  1  0
 15 37  1  0
 16 38  1  0
 17 39  1  0
 18 40  1  0
 19 41  1  0
 20 42  1  0
 22 43  1  0
 26 44  1  0
 28 45  1  0
 29 46  1  0
M  END
>  <Energy>  (696) 
-35.37414493287794

>  <compound_id>  (696) 
4305

>  <target_id>  (696) 
1

>  <reference_id>  (696) 
141

>  <inspiration_ids>  (696) 
[150, 141]

>  <energy_score>  (696) 
-81.96758364579637

>  <distance_score>  (696) 
0.7804821520126309

>  <path>  (696) 
/opt/xchem-fragalysis-2/maxwin/BulkDock/SCRATCH/505735/C4305-P141/C4305-P141.minimised.mol

>  <scratch_subdir>  (696) 
/opt/xchem-fragalysis-2/maxwin/BulkDock/SCRATCH/505735/C4305-P141

>  <fragmenstein_runtime>  (696) 
4.177990198135376

>  <fragmenstein_outcome>  (696) 
acceptable

>  <fragmenstein_mode>  (696) 
expansion

>  <fragmenstein_error>  (696) 


$$$$
C4305-P150
     RDKit          3D

 46 50  0  0  0  0  0  0  0  0999 V2000
    1.4096   -2.7701   28.5062 O   0  0  0  0  0  0  0  0  0  0  0  0
    1.2165   -1.7354   29.4944 S   0  0  0  0  0  0  0  0  0  0  0  0
    2.3465   -1.0410   30.0717 O   0  0  0  0  0  0  0  0  0  0  0  0
    0.3681   -2.3951   30.7954 N   0  0  0  0  0  0  0  0  0  0  0  0
    1.2343   -3.1982   31.6729 C   0  0  0  0  0  0  0  0  0  0  0  0
    0.6685   -4.5756   31.8436 C   0  0  0  0  0  0  0  0  0  0  0  0
    0.7210   -5.1146   33.2035 C   0  0  0  0  0  0  0  0  0  0  0  0
    0.1414   -6.2958   33.5032 C   0  0  0  0  0  0  0  0  0  0  0  0
    0.1331   -6.8913   34.7564 N   0  0  0  0  0  0  0  0  0  0  0  0
   -0.0654   -6.2291   35.9141 C   0  0  0  0  0  0  0  0  0  0  0  0
   -0.3012   -4.9613   36.1518 N   0  0  0  0  0  0  0  0  0  0  0  0
   -0.5338   -4.8217   37.4981 N   0  0  0  0  0  0  0  0  0  0  0  0
   -0.3727   -5.9992   38.0704 C   0  0  0  0  0  0  0  0  0  0  0  0
   -0.5287   -6.3318   39.4786 C   0  0  0  0  0  0  0  0  0  0  0  0
    0.0661   -7.4744   40.0359 C   0  0  0  0  0  0  0  0  0  0  0  0
   -0.1561   -7.8065   41.3731 C   0  0  0  0  0  0  0  0  0  0  0  0
   -0.9705   -7.0005   42.1649 C   0  0  0  0  0  0  0  0  0  0  0  0
   -1.5538   -5.8559   41.6267 C   0  0  0  0  0  0  0  0  0  0  0  0
   -1.3273   -5.5188   40.2923 C   0  0  0  0  0  0  0  0  0  0  0  0
   -0.0969   -6.9155   37.0908 N   0  0  0  0  0  0  0  0  0  0  0  0
   -0.4786   -6.9660   32.4450 N   0  0  0  0  0  0  0  0  0  0  0  0
   -1.2760   -8.0686   32.4438 C   0  0  0  0  0  0  0  0  0  0  0  0
   -1.5412   -8.4247   31.2154 N   0  0  0  0  0  0  0  0  0  0  0  0
   -1.0183   -7.4762   30.3757 N   0  0  0  0  0  0  0  0  0  0  0  0
   -0.4357   -6.5653   31.1226 C   0  0  0  0  0  0  0  0  0  0  0  0
    0.1455   -5.3074   30.8350 C   0  0  0  0  0  0  0  0  0  0  0  0
    0.2633   -0.4614   28.7936 C   0  0  0  0  0  0  0  0  0  0  0  0
    0.3857    0.9136   28.7343 C   0  0  0  0  0  0  0  0  0  0  0  0
   -0.6985    1.4707   28.0069 C   0  0  0  0  0  0  0  0  0  0  0  0
   -1.6018    0.6126   27.5498 N   0  0  0  0  0  0  0  0  0  0  0  0
   -1.1591   -0.9232   28.0115 S   0  0  0  0  0  0  0  0  0  0  0  0
   -0.1590   -1.6899   31.3084 H   0  0  0  0  0  0  0  0  0  0  0  0
    2.2585   -3.2995   31.2955 H   0  0  0  0  0  0  0  0  0  0  0  0
    1.3020   -2.6665   32.6300 H   0  0  0  0  0  0  0  0  0  0  0  0
    1.2254   -4.5381   33.9754 H   0  0  0  0  0  0  0  0  0  0  0  0
   -0.1366   -7.8731   34.7574 H   0  0  0  0  0  0  0  0  0  0  0  0
    0.7051   -8.1251   39.4454 H   0  0  0  0  0  0  0  0  0  0  0  0
    0.3036   -8.6940   41.7996 H   0  0  0  0  0  0  0  0  0  0  0  0
   -1.1489   -7.2601   43.2057 H   0  0  0  0  0  0  0  0  0  0  0  0
   -2.1917   -5.2264   42.2424 H   0  0  0  0  0  0  0  0  0  0  0  0
   -1.8024   -4.6288   39.8829 H   0  0  0  0  0  0  0  0  0  0  0  0
   -0.0025   -7.9129   37.2129 H   0  0  0  0  0  0  0  0  0  0  0  0
   -1.6353   -8.5571   33.3336 H   0  0  0  0  0  0  0  0  0  0  0  0
    0.1058   -4.9381   29.8135 H   0  0  0  0  0  0  0  0  0  0  0  0
    1.2094    1.4693   29.1624 H   0  0  0  0  0  0  0  0  0  0  0  0
   -0.8583    2.5200   27.7873 H   0  0  0  0  0  0  0  0  0  0  0  0
  1  2  2  0
  2  3  2  0
  2  4  1  0
  4  5  1  0
  5  6  1  0
  6  7  1  0
  7  8  2  0
  8  9  1  0
  9 10  1  0
 10 11  2  0
 11 12  1  0
 12 13  2  0
 13 14  1  0
 14 15  2  0
 15 16  1  0
 16 17  2  0
 17 18  1  0
 18 19  2  0
 13 20  1  0
  8 21  1  0
 21 22  1  0
 22 23  2  0
 23 24  1  0
 24 25  2  0
 25 26  1  0
  2 27  1  0
 27 28  2  0
 28 29  1  0
 29 30  2  0
 30 31  1  0
 26  6  2  0
 31 27  1  0
 20 10  1  0
 25 21  1  0
 19 14  1  0
  4 32  1  0
  5 33  1  0
  5 34  1  0
  7 35  1  0
  9 36  1  0
 15 37  1  0
 16 38  1  0
 17 39  1  0
 18 40  1  0
 19 41  1  0
 20 42  1  0
 22 43  1  0
 26 44  1  0
 28 45  1  0
 29 46  1  0
M  END
>  <Energy>  (697) 
-36.009792322567641

>  <compound_id>  (697) 
4305

>  <target_id>  (697) 
1

>  <reference_id>  (697) 
150

>  <inspiration_ids>  (697) 
[150, 142]

>  <energy_score>  (697) 
-82.60323103548714

>  <distance_score>  (697) 
0.8938673576622044

>  <path>  (697) 
/opt/xchem-fragalysis-2/maxwin/BulkDock/SCRATCH/505735/C4305-P150/C4305-P150.minimised.mol

>  <scratch_subdir>  (697) 
/opt/xchem-fragalysis-2/maxwin/BulkDock/SCRATCH/505735/C4305-P150

>  <fragmenstein_runtime>  (697) 
4.770019292831421

>  <fragmenstein_outcome>  (697) 
acceptable

>  <fragmenstein_mode>  (697) 
expansion

>  <fragmenstein_error>  (697) 


$$$$
C4305-P142
     RDKit          3D

 46 50  0  0  0  0  0  0  0  0999 V2000
    1.1813   -2.7666   28.4342 O   0  0  0  0  0  0  0  0  0  0  0  0
    1.0254   -1.7235   29.4202 S   0  0  0  0  0  0  0  0  0  0  0  0
    2.1774   -1.0104   29.9296 O   0  0  0  0  0  0  0  0  0  0  0  0
    0.2733   -2.3948   30.7757 N   0  0  0  0  0  0  0  0  0  0  0  0
    1.1988   -3.2219   31.5704 C   0  0  0  0  0  0  0  0  0  0  0  0
    0.6394   -4.6023   31.7453 C   0  0  0  0  0  0  0  0  0  0  0  0
    0.6891   -5.1461   33.1028 C   0  0  0  0  0  0  0  0  0  0  0  0
    0.1058   -6.3275   33.3991 C   0  0  0  0  0  0  0  0  0  0  0  0
    0.0993   -6.9242   34.6532 N   0  0  0  0  0  0  0  0  0  0  0  0
   -0.0362   -6.2588   35.8184 C   0  0  0  0  0  0  0  0  0  0  0  0
   -0.2508   -4.9874   36.0588 N   0  0  0  0  0  0  0  0  0  0  0  0
   -0.4096   -4.8355   37.4134 N   0  0  0  0  0  0  0  0  0  0  0  0
   -0.2344   -6.0109   37.9870 C   0  0  0  0  0  0  0  0  0  0  0  0
   -0.3512   -6.3300   39.4045 C   0  0  0  0  0  0  0  0  0  0  0  0
    0.1760   -7.5138   39.9437 C   0  0  0  0  0  0  0  0  0  0  0  0
   -0.0398   -7.8386   41.2844 C   0  0  0  0  0  0  0  0  0  0  0  0
   -0.7781   -6.9842   42.1001 C   0  0  0  0  0  0  0  0  0  0  0  0
   -1.2910   -5.7979   41.5818 C   0  0  0  0  0  0  0  0  0  0  0  0
   -1.0712   -5.4688   40.2437 C   0  0  0  0  0  0  0  0  0  0  0  0
   -0.0052   -6.9362   37.0010 N   0  0  0  0  0  0  0  0  0  0  0  0
   -0.5165   -6.9927   32.3365 N   0  0  0  0  0  0  0  0  0  0  0  0
   -1.3285   -8.0853   32.3273 C   0  0  0  0  0  0  0  0  0  0  0  0
   -1.6064   -8.4346   31.0985 N   0  0  0  0  0  0  0  0  0  0  0  0
   -1.0638   -7.4913   30.2657 N   0  0  0  0  0  0  0  0  0  0  0  0
   -0.4672   -6.5904   31.0158 C   0  0  0  0  0  0  0  0  0  0  0  0
    0.1223   -5.3342   30.7339 C   0  0  0  0  0  0  0  0  0  0  0  0
    0.0079   -0.4696   28.7673 C   0  0  0  0  0  0  0  0  0  0  0  0
    0.0978    0.9089   28.7122 C   0  0  0  0  0  0  0  0  0  0  0  0
   -1.0263    1.4475   28.0306 C   0  0  0  0  0  0  0  0  0  0  0  0
   -1.9220    0.5717   27.5906 N   0  0  0  0  0  0  0  0  0  0  0  0
   -1.4446   -0.9516   28.0458 S   0  0  0  0  0  0  0  0  0  0  0  0
   -0.1949   -1.6864   31.3392 H   0  0  0  0  0  0  0  0  0  0  0  0
    2.1931   -3.3138   31.1179 H   0  0  0  0  0  0  0  0  0  0  0  0
    1.3394   -2.7146   32.5327 H   0  0  0  0  0  0  0  0  0  0  0  0
    1.1969   -4.5730   33.8746 H   0  0  0  0  0  0  0  0  0  0  0  0
   -0.1616   -7.9100   34.6593 H   0  0  0  0  0  0  0  0  0  0  0  0
    0.7468   -8.2108   39.3353 H   0  0  0  0  0  0  0  0  0  0  0  0
    0.3625   -8.7629   41.6912 H   0  0  0  0  0  0  0  0  0  0  0  0
   -0.9520   -7.2402   43.1423 H   0  0  0  0  0  0  0  0  0  0  0  0
   -1.8714   -5.1300   42.2133 H   0  0  0  0  0  0  0  0  0  0  0  0
   -1.5023   -4.5503   39.8475 H   0  0  0  0  0  0  0  0  0  0  0  0
    0.0902   -7.9345   37.1222 H   0  0  0  0  0  0  0  0  0  0  0  0
   -1.6979   -8.5617   33.2170 H   0  0  0  0  0  0  0  0  0  0  0  0
    0.0840   -4.9610   29.7147 H   0  0  0  0  0  0  0  0  0  0  0  0
    0.9235    1.4813   29.1133 H   0  0  0  0  0  0  0  0  0  0  0  0
   -1.2196    2.4950   27.8299 H   0  0  0  0  0  0  0  0  0  0  0  0
  1  2  2  0
  2  3  2  0
  2  4  1  0
  4  5  1  0
  5  6  1  0
  6  7  1  0
  7  8  2  0
  8  9  1  0
  9 10  1  0
 10 11  2  0
 11 12  1  0
 12 13  2  0
 13 14  1  0
 14 15  2  0
 15 16  1  0
 16 17  2  0
 17 18  1  0
 18 19  2  0
 13 20  1  0
  8 21  1  0
 21 22  1  0
 22 23  2  0
 23 24  1  0
 24 25  2  0
 25 26  1  0
  2 27  1  0
 27 28  2  0
 28 29  1  0
 29 30  2  0
 30 31  1  0
 26  6  2  0
 31 27  1  0
 20 10  1  0
 25 21  1  0
 19 14  1  0
  4 32  1  0
  5 33  1  0
  5 34  1  0
  7 35  1  0
  9 36  1  0
 15 37  1  0
 16 38  1  0
 17 39  1  0
 18 40  1  0
 19 41  1  0
 20 42  1  0
 22 43  1  0
 26 44  1  0
 28 45  1  0
 29 46  1  0
M  END
>  <Energy>  (698) 
-36.396205766827926

>  <compound_id>  (698) 
4305

>  <target_id>  (698) 
1

>  <reference_id>  (698) 
142

>  <inspiration_ids>  (698) 
[150, 142]

>  <energy_score>  (698) 
-82.98964447974822

>  <distance_score>  (698) 
0.8518135668193592

>  <path>  (698) 
/opt/xchem-fragalysis-2/maxwin/BulkDock/SCRATCH/505735/C4305-P142/C4305-P142.minimised.mol

>  <scratch_subdir>  (698) 
/opt/xchem-fragalysis-2/maxwin/BulkDock/SCRATCH/505735/C4305-P142

>  <fragmenstein_runtime>  (698) 
5.236229181289673

>  <fragmenstein_outcome>  (698) 
acceptable

>  <fragmenstein_mode>  (698) 
expansion

>  <fragmenstein_error>  (698) 


$$$$
C4308-P150
     RDKit          3D

 50 54  0  0  0  0  0  0  0  0999 V2000
    5.7507  -10.6358   35.5336 C   0  0  0  0  0  0  0  0  0  0  0  0
    5.2811   -9.4356   36.1859 N   0  0  0  0  0  0  0  0  0  0  0  0
    5.1016   -9.2484   37.5265 C   0  0  0  0  0  0  0  0  0  0  0  0
    4.7001   -7.9414   37.6798 C   0  0  0  0  0  0  0  0  0  0  0  0
    4.6631   -7.4183   36.3662 C   0  0  0  0  0  0  0  0  0  0  0  0
    4.2516   -5.7563   35.9744 S   0  0  0  0  0  0  0  0  0  0  0  0
    3.0919   -5.4707   36.7868 O   0  0  0  0  0  0  0  0  0  0  0  0
    5.4929   -5.0290   36.1223 O   0  0  0  0  0  0  0  0  0  0  0  0
    3.8548   -5.6968   34.3333 N   0  0  0  0  0  0  0  0  0  0  0  0
    2.9958   -4.6091   33.8270 C   0  0  0  0  0  0  0  0  0  0  0  0
    1.6925   -5.2481   33.4046 C   0  0  0  0  0  0  0  0  0  0  0  0
    0.8889   -5.7069   34.5174 C   0  0  0  0  0  0  0  0  0  0  0  0
   -0.1172   -6.5894   34.3686 C   0  0  0  0  0  0  0  0  0  0  0  0
   -0.8207   -7.1139   35.4509 N   0  0  0  0  0  0  0  0  0  0  0  0
   -0.7539   -6.5245   36.6670 C   0  0  0  0  0  0  0  0  0  0  0  0
   -1.0225   -5.2469   36.9520 N   0  0  0  0  0  0  0  0  0  0  0  0
   -0.7559   -5.1971   38.2597 N   0  0  0  0  0  0  0  0  0  0  0  0
   -0.4022   -6.4218   38.7475 C   0  0  0  0  0  0  0  0  0  0  0  0
   -0.1916   -6.7350   40.1550 C   0  0  0  0  0  0  0  0  0  0  0  0
    0.4647   -7.9251   40.4974 C   0  0  0  0  0  0  0  0  0  0  0  0
    0.6419   -8.2823   41.8344 C   0  0  0  0  0  0  0  0  0  0  0  0
    0.1560   -7.4556   42.8444 C   0  0  0  0  0  0  0  0  0  0  0  0
   -0.5067   -6.2742   42.5194 C   0  0  0  0  0  0  0  0  0  0  0  0
   -0.6811   -5.9142   41.1814 C   0  0  0  0  0  0  0  0  0  0  0  0
   -0.3456   -7.2621   37.7313 N   0  0  0  0  0  0  0  0  0  0  0  0
   -0.4388   -6.9378   33.0515 N   0  0  0  0  0  0  0  0  0  0  0  0
   -1.3561   -7.8109   32.5392 C   0  0  0  0  0  0  0  0  0  0  0  0
   -1.3344   -7.7834   31.2248 N   0  0  0  0  0  0  0  0  0  0  0  0
   -0.3733   -6.8741   30.8422 N   0  0  0  0  0  0  0  0  0  0  0  0
    0.1676   -6.3716   31.9339 C   0  0  0  0  0  0  0  0  0  0  0  0
    1.2648   -5.4802   32.1439 C   0  0  0  0  0  0  0  0  0  0  0  0
    4.9823   -8.3504   35.4435 N   0  0  0  0  0  0  0  0  0  0  0  0
    5.1200  -10.8321   34.6634 H   0  0  0  0  0  0  0  0  0  0  0  0
    5.6903  -11.4737   36.2324 H   0  0  0  0  0  0  0  0  0  0  0  0
    6.7863  -10.4718   35.2263 H   0  0  0  0  0  0  0  0  0  0  0  0
    5.2867  -10.0350   38.2449 H   0  0  0  0  0  0  0  0  0  0  0  0
    4.4754   -7.4229   38.6021 H   0  0  0  0  0  0  0  0  0  0  0  0
    4.7264   -5.7939   33.8102 H   0  0  0  0  0  0  0  0  0  0  0  0
    2.8402   -3.8227   34.5729 H   0  0  0  0  0  0  0  0  0  0  0  0
    3.4946   -4.1433   32.9696 H   0  0  0  0  0  0  0  0  0  0  0  0
    1.1557   -5.3327   35.4985 H   0  0  0  0  0  0  0  0  0  0  0  0
   -0.7853   -8.1366   35.4874 H   0  0  0  0  0  0  0  0  0  0  0  0
   -0.8580   -4.3201   38.7543 H   0  0  0  0  0  0  0  0  0  0  0  0
    0.8272   -8.5865   39.7115 H   0  0  0  0  0  0  0  0  0  0  0  0
    1.1515   -9.2076   42.0870 H   0  0  0  0  0  0  0  0  0  0  0  0
    0.2873   -7.7352   43.8869 H   0  0  0  0  0  0  0  0  0  0  0  0
   -0.8975   -5.6373   43.3095 H   0  0  0  0  0  0  0  0  0  0  0  0
   -1.2314   -5.0023   40.9677 H   0  0  0  0  0  0  0  0  0  0  0  0
   -1.9968   -8.4204   33.1569 H   0  0  0  0  0  0  0  0  0  0  0  0
    1.8053   -5.1266   31.2739 H   0  0  0  0  0  0  0  0  0  0  0  0
  1  2  1  0
  2  3  1  0
  3  4  2  0
  4  5  1  0
  5  6  1  0
  6  7  2  0
  6  8  2  0
  6  9  1  0
  9 10  1  0
 10 11  1  0
 11 12  1  0
 12 13  2  0
 13 14  1  0
 14 15  1  0
 15 16  2  0
 16 17  1  0
 17 18  1  0
 18 19  1  0
 19 20  2  0
 20 21  1  0
 21 22  2  0
 22 23  1  0
 23 24  2  0
 18 25  2  0
 13 26  1  0
 26 27  1  0
 27 28  2  0
 28 29  1  0
 29 30  2  0
 30 31  1  0
  5 32  2  0
 32  2  1  0
 31 11  2  0
 25 15  1  0
 30 26  1  0
 24 19  1  0
  1 33  1  0
  1 34  1  0
  1 35  1  0
  3 36  1  0
  4 37  1  0
  9 38  1  0
 10 39  1  0
 10 40  1  0
 12 41  1  0
 14 42  1  0
 17 43  1  0
 20 44  1  0
 21 45  1  0
 22 46  1  0
 23 47  1  0
 24 48  1  0
 27 49  1  0
 31 50  1  0
M  END
>  <Energy>  (699) 
31.562914488090115

>  <compound_id>  (699) 
4308

>  <target_id>  (699) 
1

>  <reference_id>  (699) 
150

>  <inspiration_ids>  (699) 
[150, 148]

>  <energy_score>  (699) 
-46.92325672924326

>  <distance_score>  (699) 
1.8516058953306846

>  <path>  (699) 
/opt/xchem-fragalysis-2/maxwin/BulkDock/SCRATCH/505735/C4308-P150/C4308-P150.minimised.mol

>  <scratch_subdir>  (699) 
/opt/xchem-fragalysis-2/maxwin/BulkDock/SCRATCH/505735/C4308-P150

>  <fragmenstein_runtime>  (699) 
6.440168380737305

>  <fragmenstein_outcome>  (699) 
too moved

>  <fragmenstein_mode>  (699) 
expansion

>  <fragmenstein_error>  (699) 


$$$$
C4308-P148
     RDKit          3D

 50 54  0  0  0  0  0  0  0  0999 V2000
    6.7157  -11.5015   36.3560 C   0  0  0  0  0  0  0  0  0  0  0  0
    5.9264  -10.4402   36.9357 N   0  0  0  0  0  0  0  0  0  0  0  0
    5.6481  -10.2573   38.2596 C   0  0  0  0  0  0  0  0  0  0  0  0
    4.8279   -9.1584   38.3261 C   0  0  0  0  0  0  0  0  0  0  0  0
    4.6748   -8.7397   36.9817 C   0  0  0  0  0  0  0  0  0  0  0  0
    3.6337   -7.4248   36.5369 S   0  0  0  0  0  0  0  0  0  0  0  0
    2.3548   -7.8339   37.0669 O   0  0  0  0  0  0  0  0  0  0  0  0
    4.3163   -6.2349   36.9983 O   0  0  0  0  0  0  0  0  0  0  0  0
    3.4542   -7.2182   34.8376 N   0  0  0  0  0  0  0  0  0  0  0  0
    2.0764   -6.8109   34.5217 C   0  0  0  0  0  0  0  0  0  0  0  0
    1.9151   -5.7976   33.3205 C   0  0  0  0  0  0  0  0  0  0  0  0
    0.8262   -4.9591   33.8777 C   0  0  0  0  0  0  0  0  0  0  0  0
   -0.3773   -5.5877   33.8683 C   0  0  0  0  0  0  0  0  0  0  0  0
   -1.3249   -5.4221   34.8372 N   0  0  0  0  0  0  0  0  0  0  0  0
   -1.0451   -5.1411   36.1210 C   0  0  0  0  0  0  0  0  0  0  0  0
   -1.4173   -4.0138   36.7135 N   0  0  0  0  0  0  0  0  0  0  0  0
   -1.0772   -4.2605   37.9805 N   0  0  0  0  0  0  0  0  0  0  0  0
   -0.5921   -5.5286   38.1423 C   0  0  0  0  0  0  0  0  0  0  0  0
   -0.4099   -6.1609   39.4487 C   0  0  0  0  0  0  0  0  0  0  0  0
    0.1740   -7.4294   39.5430 C   0  0  0  0  0  0  0  0  0  0  0  0
    0.2169   -8.1112   40.7612 C   0  0  0  0  0  0  0  0  0  0  0  0
   -0.3226   -7.5306   41.9056 C   0  0  0  0  0  0  0  0  0  0  0  0
   -0.9016   -6.2679   41.8349 C   0  0  0  0  0  0  0  0  0  0  0  0
   -0.9432   -5.5868   40.6168 C   0  0  0  0  0  0  0  0  0  0  0  0
   -0.4739   -6.0676   36.9402 N   0  0  0  0  0  0  0  0  0  0  0  0
   -0.5906   -6.5695   32.8797 N   0  0  0  0  0  0  0  0  0  0  0  0
   -1.5578   -7.5073   32.6656 C   0  0  0  0  0  0  0  0  0  0  0  0
   -1.4176   -8.0319   31.4663 N   0  0  0  0  0  0  0  0  0  0  0  0
   -0.2412   -7.5413   30.9363 N   0  0  0  0  0  0  0  0  0  0  0  0
    0.3129   -6.7848   31.8594 C   0  0  0  0  0  0  0  0  0  0  0  0
    1.5812   -6.1388   32.0380 C   0  0  0  0  0  0  0  0  0  0  0  0
    5.3575   -9.5211   36.1261 N   0  0  0  0  0  0  0  0  0  0  0  0
    6.0757  -12.0763   35.6819 H   0  0  0  0  0  0  0  0  0  0  0  0
    7.0974  -12.1469   37.1509 H   0  0  0  0  0  0  0  0  0  0  0  0
    7.5471  -11.0514   35.8079 H   0  0  0  0  0  0  0  0  0  0  0  0
    6.0317  -10.9191   39.0240 H   0  0  0  0  0  0  0  0  0  0  0  0
    4.3749   -8.7258   39.2081 H   0  0  0  0  0  0  0  0  0  0  0  0
    4.1443   -6.5059   34.5885 H   0  0  0  0  0  0  0  0  0  0  0  0
    1.4782   -7.7127   34.3634 H   0  0  0  0  0  0  0  0  0  0  0  0
    1.6725   -6.3338   35.4225 H   0  0  0  0  0  0  0  0  0  0  0  0
    1.0919   -4.1869   34.5961 H   0  0  0  0  0  0  0  0  0  0  0  0
   -2.0254   -4.7463   34.5059 H   0  0  0  0  0  0  0  0  0  0  0  0
   -1.2755   -3.5659   38.6896 H   0  0  0  0  0  0  0  0  0  0  0  0
    0.5477   -7.9319   38.6535 H   0  0  0  0  0  0  0  0  0  0  0  0
    0.6471   -9.1110   40.7992 H   0  0  0  0  0  0  0  0  0  0  0  0
   -0.2992   -8.0717   42.8481 H   0  0  0  0  0  0  0  0  0  0  0  0
   -1.3363   -5.8212   42.7254 H   0  0  0  0  0  0  0  0  0  0  0  0
   -1.4526   -4.6281   40.6048 H   0  0  0  0  0  0  0  0  0  0  0  0
   -2.3135   -7.7553   33.3912 H   0  0  0  0  0  0  0  0  0  0  0  0
    1.8150   -5.4411   31.2344 H   0  0  0  0  0  0  0  0  0  0  0  0
  1  2  1  0
  2  3  1  0
  3  4  2  0
  4  5  1  0
  5  6  1  0
  6  7  2  0
  6  8  2  0
  6  9  1  0
  9 10  1  0
 10 11  1  0
 11 12  1  0
 12 13  2  0
 13 14  1  0
 14 15  1  0
 15 16  2  0
 16 17  1  0
 17 18  1  0
 18 19  1  0
 19 20  2  0
 20 21  1  0
 21 22  2  0
 22 23  1  0
 23 24  2  0
 18 25  2  0
 13 26  1  0
 26 27  1  0
 27 28  2  0
 28 29  1  0
 29 30  2  0
 30 31  1  0
  5 32  2  0
 32  2  1  0
 31 11  2  0
 25 15  1  0
 30 26  1  0
 24 19  1  0
  1 33  1  0
  1 34  1  0
  1 35  1  0
  3 36  1  0
  4 37  1  0
  9 38  1  0
 10 39  1  0
 10 40  1  0
 12 41  1  0
 14 42  1  0
 17 43  1  0
 20 44  1  0
 21 45  1  0
 22 46  1  0
 23 47  1  0
 24 48  1  0
 27 49  1  0
 31 50  1  0
M  END
>  <Energy>  (700) 
114.22077661068246

>  <compound_id>  (700) 
4308

>  <target_id>  (700) 
1

>  <reference_id>  (700) 
148

>  <inspiration_ids>  (700) 
[150, 148]

>  <energy_score>  (700) 
36.9952179211152

>  <distance_score>  (700) 
1.4377318758298716

>  <path>  (700) 
/opt/xchem-fragalysis-2/maxwin/BulkDock/SCRATCH/505735/C4308-P148/C4308-P148.minimised.mol

>  <scratch_subdir>  (700) 
/opt/xchem-fragalysis-2/maxwin/BulkDock/SCRATCH/505735/C4308-P148

>  <fragmenstein_runtime>  (700) 
4.689777135848999

>  <fragmenstein_outcome>  (700) 
too moved

>  <fragmenstein_mode>  (700) 
expansion

>  <fragmenstein_error>  (700) 


$$$$
C4308-P150
     RDKit          2D

  0  0  0  0  0  0  0  0  0  0999 V2000
M  END
>  <compound_id>  (701) 
4308

>  <target_id>  (701) 
1

>  <reference_id>  (701) 
150

>  <inspiration_ids>  (701) 
[150, 153]

>  <energy_score>  (701) 
nan

>  <distance_score>  (701) 
nan

>  <path>  (701) 
/opt/xchem-fragalysis-2/maxwin/BulkDock/SCRATCH/505735/C4308-P150/C4308-P150.minimised.mol

>  <scratch_subdir>  (701) 
/opt/xchem-fragalysis-2/maxwin/BulkDock/SCRATCH/505735/C4308-P150

>  <fragmenstein_runtime>  (701) 
0.28479671478271484

>  <fragmenstein_outcome>  (701) 
too distant

>  <fragmenstein_mode>  (701) 
expansion

>  <fragmenstein_error>  (701) 
DistanceError: hit0+hit1

$$$$
C4309-P150
     RDKit          3D

 46 50  0  0  0  0  0  0  0  0999 V2000
    4.7675   -4.4114   27.4844 O   0  0  0  0  0  0  0  0  0  0  0  0
    4.9189   -5.5232   28.4024 S   0  0  0  0  0  0  0  0  0  0  0  0
    5.6790   -5.3726   29.6252 O   0  0  0  0  0  0  0  0  0  0  0  0
    3.2691   -5.8660   28.8822 N   0  0  0  0  0  0  0  0  0  0  0  0
    2.6454   -4.6942   29.6939 C   0  0  0  0  0  0  0  0  0  0  0  0
    1.5666   -5.2041   30.6796 C   0  0  0  0  0  0  0  0  0  0  0  0
    1.8143   -5.2286   32.1418 C   0  0  0  0  0  0  0  0  0  0  0  0
    1.0229   -5.9310   32.9993 C   0  0  0  0  0  0  0  0  0  0  0  0
    1.3344   -6.0949   34.3571 N   0  0  0  0  0  0  0  0  0  0  0  0
    0.4542   -5.9866   35.3866 C   0  0  0  0  0  0  0  0  0  0  0  0
   -0.7820   -5.5559   35.4050 N   0  0  0  0  0  0  0  0  0  0  0  0
   -1.2282   -5.5741   36.7053 N   0  0  0  0  0  0  0  0  0  0  0  0
   -0.2792   -6.0844   37.4643 C   0  0  0  0  0  0  0  0  0  0  0  0
   -0.3518   -6.3421   38.8997 C   0  0  0  0  0  0  0  0  0  0  0  0
    0.3142   -7.4261   39.4889 C   0  0  0  0  0  0  0  0  0  0  0  0
    0.1658   -7.6941   40.8536 C   0  0  0  0  0  0  0  0  0  0  0  0
   -0.6482   -6.8838   41.6430 C   0  0  0  0  0  0  0  0  0  0  0  0
   -1.3143   -5.8033   41.0708 C   0  0  0  0  0  0  0  0  0  0  0  0
   -1.1650   -5.5341   39.7082 C   0  0  0  0  0  0  0  0  0  0  0  0
    0.8060   -6.3381   36.6627 N   0  0  0  0  0  0  0  0  0  0  0  0
   -0.0793   -6.6073   32.4226 N   0  0  0  0  0  0  0  0  0  0  0  0
   -0.9744   -7.5280   32.9077 C   0  0  0  0  0  0  0  0  0  0  0  0
   -1.7130   -8.0090   31.9300 N   0  0  0  0  0  0  0  0  0  0  0  0
   -1.3504   -7.3716   30.7767 N   0  0  0  0  0  0  0  0  0  0  0  0
   -0.4016   -6.5128   31.0783 C   0  0  0  0  0  0  0  0  0  0  0  0
    0.3827   -5.6756   30.2491 C   0  0  0  0  0  0  0  0  0  0  0  0
    5.7664   -6.7485   27.4882 C   0  0  0  0  0  0  0  0  0  0  0  0
    6.1455   -6.5493   26.1779 C   0  0  0  0  0  0  0  0  0  0  0  0
    7.2902   -7.7192   25.7102 S   0  0  0  0  0  0  0  0  0  0  0  0
    7.1083   -8.4781   27.2205 C   0  0  0  0  0  0  0  0  0  0  0  0
    6.2904   -7.8971   28.0704 N   0  0  0  0  0  0  0  0  0  0  0  0
    2.7251   -5.9745   28.0209 H   0  0  0  0  0  0  0  0  0  0  0  0
    3.4264   -4.1668   30.2511 H   0  0  0  0  0  0  0  0  0  0  0  0
    2.1981   -3.9919   28.9809 H   0  0  0  0  0  0  0  0  0  0  0  0
    2.6889   -4.6906   32.4989 H   0  0  0  0  0  0  0  0  0  0  0  0
    2.2683   -5.7478   34.5674 H   0  0  0  0  0  0  0  0  0  0  0  0
    0.9084   -8.1110   38.8897 H   0  0  0  0  0  0  0  0  0  0  0  0
    0.6686   -8.5494   41.2971 H   0  0  0  0  0  0  0  0  0  0  0  0
   -0.7741   -7.1001   42.7008 H   0  0  0  0  0  0  0  0  0  0  0  0
   -1.9667   -5.1788   41.6763 H   0  0  0  0  0  0  0  0  0  0  0  0
   -1.7140   -4.7014   39.2712 H   0  0  0  0  0  0  0  0  0  0  0  0
    1.6846   -6.7260   36.9613 H   0  0  0  0  0  0  0  0  0  0  0  0
   -1.0311   -7.8336   33.9430 H   0  0  0  0  0  0  0  0  0  0  0  0
    0.0621   -5.5501   29.2340 H   0  0  0  0  0  0  0  0  0  0  0  0
    5.8796   -5.7379   25.5144 H   0  0  0  0  0  0  0  0  0  0  0  0
    7.6430   -9.3866   27.4688 H   0  0  0  0  0  0  0  0  0  0  0  0
  1  2  2  0
  2  3  2  0
  2  4  1  0
  4  5  1  0
  5  6  1  0
  6  7  1  0
  7  8  2  0
  8  9  1  0
  9 10  1  0
 10 11  2  0
 11 12  1  0
 12 13  2  0
 13 14  1  0
 14 15  2  0
 15 16  1  0
 16 17  2  0
 17 18  1  0
 18 19  2  0
 13 20  1  0
  8 21  1  0
 21 22  1  0
 22 23  2  0
 23 24  1  0
 24 25  2  0
 25 26  1  0
  2 27  1  0
 27 28  2  0
 28 29  1  0
 29 30  1  0
 30 31  2  0
 26  6  2  0
 31 27  1  0
 20 10  1  0
 25 21  1  0
 19 14  1  0
  4 32  1  0
  5 33  1  0
  5 34  1  0
  7 35  1  0
  9 36  1  0
 15 37  1  0
 16 38  1  0
 17 39  1  0
 18 40  1  0
 19 41  1  0
 20 42  1  0
 22 43  1  0
 26 44  1  0
 28 45  1  0
 30 46  1  0
M  END
>  <Energy>  (702) 
43.883170536059595

>  <compound_id>  (702) 
4309

>  <target_id>  (702) 
1

>  <reference_id>  (702) 
150

>  <inspiration_ids>  (702) 
[150, 154]

>  <energy_score>  (702) 
-73.70928098675887

>  <distance_score>  (702) 
1.8940545190267013

>  <path>  (702) 
/opt/xchem-fragalysis-2/maxwin/BulkDock/SCRATCH/505735/C4309-P150/C4309-P150.minimised.mol

>  <scratch_subdir>  (702) 
/opt/xchem-fragalysis-2/maxwin/BulkDock/SCRATCH/505735/C4309-P150

>  <fragmenstein_runtime>  (702) 
4.165000677108765

>  <fragmenstein_outcome>  (702) 
too moved

>  <fragmenstein_mode>  (702) 
expansion

>  <fragmenstein_error>  (702) 


$$$$
C4309-P154
     RDKit          3D

 46 50  0  0  0  0  0  0  0  0999 V2000
    5.9075   -4.4710   28.3034 O   0  0  0  0  0  0  0  0  0  0  0  0
    5.6715   -5.8376   28.7143 S   0  0  0  0  0  0  0  0  0  0  0  0
    6.4000   -6.4231   29.8144 O   0  0  0  0  0  0  0  0  0  0  0  0
    3.9576   -5.9442   29.0285 N   0  0  0  0  0  0  0  0  0  0  0  0
    3.4184   -4.8623   29.9463 C   0  0  0  0  0  0  0  0  0  0  0  0
    2.2108   -5.3762   30.7642 C   0  0  0  0  0  0  0  0  0  0  0  0
    2.3328   -5.4915   32.2321 C   0  0  0  0  0  0  0  0  0  0  0  0
    1.3871   -6.1021   32.9959 C   0  0  0  0  0  0  0  0  0  0  0  0
    1.5874   -6.3614   34.3610 N   0  0  0  0  0  0  0  0  0  0  0  0
    0.7086   -6.1261   35.3705 C   0  0  0  0  0  0  0  0  0  0  0  0
   -0.4212   -5.4664   35.3936 N   0  0  0  0  0  0  0  0  0  0  0  0
   -0.8765   -5.4358   36.6962 N   0  0  0  0  0  0  0  0  0  0  0  0
   -0.0457   -6.1334   37.4465 C   0  0  0  0  0  0  0  0  0  0  0  0
   -0.1510   -6.4105   38.8779 C   0  0  0  0  0  0  0  0  0  0  0  0
    0.3213   -7.6097   39.4312 C   0  0  0  0  0  0  0  0  0  0  0  0
    0.1308   -7.8950   40.7873 C   0  0  0  0  0  0  0  0  0  0  0  0
   -0.5259   -6.9829   41.6099 C   0  0  0  0  0  0  0  0  0  0  0  0
   -0.9877   -5.7820   41.0785 C   0  0  0  0  0  0  0  0  0  0  0  0
   -0.7951   -5.4971   39.7229 C   0  0  0  0  0  0  0  0  0  0  0  0
    0.9711   -6.5743   36.6382 N   0  0  0  0  0  0  0  0  0  0  0  0
    0.2570   -6.6115   32.3110 N   0  0  0  0  0  0  0  0  0  0  0  0
   -0.7939   -7.3962   32.7152 C   0  0  0  0  0  0  0  0  0  0  0  0
   -1.5179   -7.7679   31.6804 N   0  0  0  0  0  0  0  0  0  0  0  0
   -0.9798   -7.1824   30.5619 N   0  0  0  0  0  0  0  0  0  0  0  0
    0.0745   -6.4859   30.9373 C   0  0  0  0  0  0  0  0  0  0  0  0
    1.0603   -5.7841   30.1865 C   0  0  0  0  0  0  0  0  0  0  0  0
    6.0872   -6.7853   27.3345 C   0  0  0  0  0  0  0  0  0  0  0  0
    7.3362   -7.3334   27.1412 C   0  0  0  0  0  0  0  0  0  0  0  0
    7.4389   -7.8967   25.5365 S   0  0  0  0  0  0  0  0  0  0  0  0
    5.8197   -7.4040   25.2588 C   0  0  0  0  0  0  0  0  0  0  0  0
    5.1806   -6.9182   26.2973 N   0  0  0  0  0  0  0  0  0  0  0  0
    3.5077   -5.8759   28.1065 H   0  0  0  0  0  0  0  0  0  0  0  0
    4.2087   -4.5266   30.6264 H   0  0  0  0  0  0  0  0  0  0  0  0
    3.1100   -4.0060   29.3359 H   0  0  0  0  0  0  0  0  0  0  0  0
    3.2427   -5.1011   32.6806 H   0  0  0  0  0  0  0  0  0  0  0  0
    2.5539   -6.1754   34.6244 H   0  0  0  0  0  0  0  0  0  0  0  0
    0.7932   -8.3720   38.8159 H   0  0  0  0  0  0  0  0  0  0  0  0
    0.4745   -8.8463   41.1899 H   0  0  0  0  0  0  0  0  0  0  0  0
   -0.6859   -7.2129   42.6599 H   0  0  0  0  0  0  0  0  0  0  0  0
   -1.5158   -5.0707   41.7080 H   0  0  0  0  0  0  0  0  0  0  0  0
   -1.1921   -4.5674   39.3175 H   0  0  0  0  0  0  0  0  0  0  0  0
    1.7579   -7.1273   36.9338 H   0  0  0  0  0  0  0  0  0  0  0  0
   -0.9682   -7.6788   33.7431 H   0  0  0  0  0  0  0  0  0  0  0  0
    0.9183   -5.6791   29.1229 H   0  0  0  0  0  0  0  0  0  0  0  0
    8.1805   -7.3474   27.8160 H   0  0  0  0  0  0  0  0  0  0  0  0
    5.3392   -7.4896   24.2937 H   0  0  0  0  0  0  0  0  0  0  0  0
  1  2  2  0
  2  3  2  0
  2  4  1  0
  4  5  1  0
  5  6  1  0
  6  7  1  0
  7  8  2  0
  8  9  1  0
  9 10  1  0
 10 11  2  0
 11 12  1  0
 12 13  2  0
 13 14  1  0
 14 15  2  0
 15 16  1  0
 16 17  2  0
 17 18  1  0
 18 19  2  0
 13 20  1  0
  8 21  1  0
 21 22  1  0
 22 23  2  0
 23 24  1  0
 24 25  2  0
 25 26  1  0
  2 27  1  0
 27 28  2  0
 28 29  1  0
 29 30  1  0
 30 31  2  0
 26  6  2  0
 31 27  1  0
 20 10  1  0
 25 21  1  0
 19 14  1  0
  4 32  1  0
  5 33  1  0
  5 34  1  0
  7 35  1  0
  9 36  1  0
 15 37  1  0
 16 38  1  0
 17 39  1  0
 18 40  1  0
 19 41  1  0
 20 42  1  0
 22 43  1  0
 26 44  1  0
 28 45  1  0
 30 46  1  0
M  END
>  <Energy>  (703) 
33.099600760074523

>  <compound_id>  (703) 
4309

>  <target_id>  (703) 
1

>  <reference_id>  (703) 
154

>  <inspiration_ids>  (703) 
[150, 154]

>  <energy_score>  (703) 
-84.49285076274461

>  <distance_score>  (703) 
1.5879909218850525

>  <path>  (703) 
/opt/xchem-fragalysis-2/maxwin/BulkDock/SCRATCH/505735/C4309-P154/C4309-P154.minimised.mol

>  <scratch_subdir>  (703) 
/opt/xchem-fragalysis-2/maxwin/BulkDock/SCRATCH/505735/C4309-P154

>  <fragmenstein_runtime>  (703) 
3.2124240398406982

>  <fragmenstein_outcome>  (703) 
too moved

>  <fragmenstein_mode>  (703) 
expansion

>  <fragmenstein_error>  (703) 


$$$$
C4314-P150
     RDKit          3D

 64 68  0  0  0  0  0  0  0  0999 V2000
   -1.5343   -4.4700   39.3742 C   0  0  0  0  0  0  0  0  0  0  0  0
   -0.8157   -5.7691   39.5795 C   0  0  0  0  0  0  0  0  0  0  0  0
   -0.5330   -6.1315   40.9156 C   0  0  0  0  0  0  0  0  0  0  0  0
    0.1667   -7.2936   41.2190 C   0  0  0  0  0  0  0  0  0  0  0  0
    0.6129   -8.1047   40.1907 C   0  0  0  0  0  0  0  0  0  0  0  0
    0.3273   -7.7760   38.8664 C   0  0  0  0  0  0  0  0  0  0  0  0
   -0.4080   -6.6306   38.5330 C   0  0  0  0  0  0  0  0  0  0  0  0
   -0.7403   -6.4447   37.1557 N   0  0  0  0  0  0  0  0  0  0  0  0
   -0.7486   -7.3852   36.1313 C   0  0  0  0  0  0  0  0  0  0  0  0
   -1.0175   -6.6953   34.9664 C   0  0  0  0  0  0  0  0  0  0  0  0
   -1.0727   -7.2115   33.5939 C   0  0  0  0  0  0  0  0  0  0  0  0
   -0.8514   -8.3771   33.3159 O   0  0  0  0  0  0  0  0  0  0  0  0
   -1.2888   -6.2985   32.6081 O   0  0  0  0  0  0  0  0  0  0  0  0
   -0.8101   -6.6621   31.3051 C   0  0  0  0  0  0  0  0  0  0  0  0
    0.1186   -5.6260   30.8882 N   0  0  0  0  0  0  0  0  0  0  0  0
   -0.1418   -4.4026   30.2308 C   0  0  0  0  0  0  0  0  0  0  0  0
   -1.2972   -3.6457   30.2697 C   0  0  0  0  0  0  0  0  0  0  0  0
   -1.5105   -2.4347   29.6896 N   0  0  0  0  0  0  0  0  0  0  0  0
   -0.4568   -1.8670   29.0918 C   0  0  0  0  0  0  0  0  0  0  0  0
    0.8151   -2.3619   29.2587 C   0  0  0  0  0  0  0  0  0  0  0  0
    0.9532   -3.5795   29.9432 C   0  0  0  0  0  0  0  0  0  0  0  0
    2.2170   -3.8599   30.6956 C   0  0  0  0  0  0  0  0  0  0  0  0
    2.0920   -3.5534   32.2094 C   0  0  0  0  0  0  0  0  0  0  0  0
    0.7859   -3.4867   33.0429 C   0  0  0  0  0  0  0  0  0  0  0  0
   -0.2719   -4.0586   32.8275 O   0  0  0  0  0  0  0  0  0  0  0  0
    1.1246   -3.1291   34.3409 N   0  0  0  0  0  0  0  0  0  0  0  0
    1.6895   -4.2635   35.0377 C   0  0  0  0  0  0  0  0  0  0  0  0
    2.7238   -3.8781   36.0783 C   0  0  0  0  0  0  0  0  0  0  0  0
    3.0501   -5.1073   36.9179 C   0  0  0  0  0  0  0  0  0  0  0  0
    2.8654   -6.4434   36.2187 C   0  0  0  0  0  0  0  0  0  0  0  0
    3.1363   -6.3494   34.7471 C   0  0  0  0  0  0  0  0  0  0  0  0
    2.2403   -5.3303   34.0742 C   0  0  0  0  0  0  0  0  0  0  0  0
    2.9338   -4.5652   32.9627 C   0  0  0  0  0  0  0  0  0  0  0  0
    4.1103   -4.7507   32.6890 O   0  0  0  0  0  0  0  0  0  0  0  0
   -1.1796   -5.3886   35.3195 N   0  0  0  0  0  0  0  0  0  0  0  0
   -1.1268   -5.2692   36.6401 N   0  0  0  0  0  0  0  0  0  0  0  0
   -0.8634   -3.7420   38.9064 H   0  0  0  0  0  0  0  0  0  0  0  0
   -1.8685   -4.0360   40.3233 H   0  0  0  0  0  0  0  0  0  0  0  0
   -2.4265   -4.5886   38.7619 H   0  0  0  0  0  0  0  0  0  0  0  0
   -0.8571   -5.4917   41.7354 H   0  0  0  0  0  0  0  0  0  0  0  0
    0.3765   -7.5497   42.2540 H   0  0  0  0  0  0  0  0  0  0  0  0
    1.1774   -9.0051   40.4154 H   0  0  0  0  0  0  0  0  0  0  0  0
    0.6973   -8.4503   38.1010 H   0  0  0  0  0  0  0  0  0  0  0  0
   -0.6126   -8.4369   36.3178 H   0  0  0  0  0  0  0  0  0  0  0  0
   -1.6238   -6.8541   30.6155 H   0  0  0  0  0  0  0  0  0  0  0  0
   -0.2284   -7.5896   31.3264 H   0  0  0  0  0  0  0  0  0  0  0  0
    0.3046   -5.2685   31.8260 H   0  0  0  0  0  0  0  0  0  0  0  0
   -2.0939   -3.9213   30.9443 H   0  0  0  0  0  0  0  0  0  0  0  0
   -0.6536   -0.9423   28.5601 H   0  0  0  0  0  0  0  0  0  0  0  0
    1.6704   -1.7713   28.9532 H   0  0  0  0  0  0  0  0  0  0  0  0
    2.5132   -4.8925   30.4964 H   0  0  0  0  0  0  0  0  0  0  0  0
    3.0413   -3.2632   30.2810 H   0  0  0  0  0  0  0  0  0  0  0  0
    2.5706   -2.5738   32.3624 H   0  0  0  0  0  0  0  0  0  0  0  0
    1.7025   -2.2984   34.4058 H   0  0  0  0  0  0  0  0  0  0  0  0
    0.8779   -4.6851   35.6002 H   0  0  0  0  0  0  0  0  0  0  0  0
    3.6317   -3.4981   35.5933 H   0  0  0  0  0  0  0  0  0  0  0  0
    2.3592   -3.0716   36.7256 H   0  0  0  0  0  0  0  0  0  0  0  0
    4.0864   -5.0181   37.2674 H   0  0  0  0  0  0  0  0  0  0  0  0
    2.4341   -5.1028   37.8259 H   0  0  0  0  0  0  0  0  0  0  0  0
    3.5236   -7.1895   36.6797 H   0  0  0  0  0  0  0  0  0  0  0  0
    1.8527   -6.8102   36.3791 H   0  0  0  0  0  0  0  0  0  0  0  0
    4.2025   -6.1470   34.5983 H   0  0  0  0  0  0  0  0  0  0  0  0
    2.9333   -7.3394   34.3420 H   0  0  0  0  0  0  0  0  0  0  0  0
    1.4243   -5.8888   33.6063 H   0  0  0  0  0  0  0  0  0  0  0  0
  1  2  1  0
  2  3  2  0
  3  4  1  0
  4  5  2  0
  5  6  1  0
  6  7  2  0
  7  8  1  0
  8  9  1  0
  9 10  2  0
 10 11  1  0
 11 12  2  0
 11 13  1  0
 13 14  1  0
 14 15  1  0
 15 16  1  0
 16 17  2  0
 17 18  1  0
 18 19  2  0
 19 20  1  0
 20 21  2  0
 21 22  1  0
 22 23  1  0
 23 24  1  0
 24 25  2  0
 24 26  1  0
 26 27  1  0
 27 28  1  0
 28 29  1  0
 29 30  1  0
 30 31  1  0
 31 32  1  0
 32 33  1  0
 33 34  2  0
 10 35  1  0
 35 36  2  0
  7  2  1  0
 36  8  1  0
 21 16  1  0
 33 23  1  0
 32 27  1  0
  1 37  1  0
  1 38  1  0
  1 39  1  0
  3 40  1  0
  4 41  1  0
  5 42  1  0
  6 43  1  0
  9 44  1  0
 14 45  1  0
 14 46  1  0
 15 47  1  0
 17 48  1  0
 19 49  1  0
 20 50  1  0
 22 51  1  0
 22 52  1  0
 23 53  1  0
 26 54  1  0
 27 55  1  0
 28 56  1  0
 28 57  1  0
 29 58  1  0
 29 59  1  0
 30 60  1  0
 30 61  1  0
 31 62  1  0
 31 63  1  0
 32 64  1  0
M  END
>  <Energy>  (704) 
130.83460605213725

>  <compound_id>  (704) 
4314

>  <target_id>  (704) 
1

>  <reference_id>  (704) 
150

>  <inspiration_ids>  (704) 
[150, 164]

>  <energy_score>  (704) 
22.89349889880333

>  <distance_score>  (704) 
3.70895615942899

>  <path>  (704) 
/opt/xchem-fragalysis-2/maxwin/BulkDock/SCRATCH/505735/C4314-P150/C4314-P150.minimised.mol

>  <scratch_subdir>  (704) 
/opt/xchem-fragalysis-2/maxwin/BulkDock/SCRATCH/505735/C4314-P150

>  <fragmenstein_runtime>  (704) 
25.763289213180542

>  <fragmenstein_outcome>  (704) 
too moved

>  <fragmenstein_mode>  (704) 
expansion

>  <fragmenstein_error>  (704) 


$$$$
C4314-P164
     RDKit          3D

 64 68  0  0  0  0  0  0  0  0999 V2000
   -1.6611   -4.3037   40.4895 C   0  0  0  0  0  0  0  0  0  0  0  0
   -0.9943   -5.6437   40.4830 C   0  0  0  0  0  0  0  0  0  0  0  0
   -1.4302   -6.6055   41.4163 C   0  0  0  0  0  0  0  0  0  0  0  0
   -0.8765   -7.8845   41.4511 C   0  0  0  0  0  0  0  0  0  0  0  0
    0.1209   -8.2273   40.5526 C   0  0  0  0  0  0  0  0  0  0  0  0
    0.6004   -7.2772   39.6575 C   0  0  0  0  0  0  0  0  0  0  0  0
    0.0711   -5.9736   39.6262 C   0  0  0  0  0  0  0  0  0  0  0  0
    0.6869   -5.0394   38.7526 N   0  0  0  0  0  0  0  0  0  0  0  0
    1.9952   -5.0926   38.3234 C   0  0  0  0  0  0  0  0  0  0  0  0
    2.0782   -4.1416   37.3336 C   0  0  0  0  0  0  0  0  0  0  0  0
    3.1226   -4.0137   36.3313 C   0  0  0  0  0  0  0  0  0  0  0  0
    3.7190   -2.9615   36.1236 O   0  0  0  0  0  0  0  0  0  0  0  0
    3.4469   -5.1398   35.6068 O   0  0  0  0  0  0  0  0  0  0  0  0
    2.6257   -6.3278   35.5764 C   0  0  0  0  0  0  0  0  0  0  0  0
    1.2277   -6.0069   35.5443 N   0  0  0  0  0  0  0  0  0  0  0  0
    0.2183   -6.9007   35.2534 C   0  0  0  0  0  0  0  0  0  0  0  0
   -0.8374   -7.0245   36.1290 C   0  0  0  0  0  0  0  0  0  0  0  0
   -2.0004   -7.6489   35.8610 N   0  0  0  0  0  0  0  0  0  0  0  0
   -2.1716   -8.1812   34.6659 C   0  0  0  0  0  0  0  0  0  0  0  0
   -1.2304   -8.0793   33.6901 C   0  0  0  0  0  0  0  0  0  0  0  0
   -0.0402   -7.3960   33.9813 C   0  0  0  0  0  0  0  0  0  0  0  0
    0.6833   -6.8963   32.7828 C   0  0  0  0  0  0  0  0  0  0  0  0
   -0.2144   -5.7918   32.2570 C   0  0  0  0  0  0  0  0  0  0  0  0
   -0.5437   -6.1708   30.8774 C   0  0  0  0  0  0  0  0  0  0  0  0
   -1.0898   -7.2385   30.5939 O   0  0  0  0  0  0  0  0  0  0  0  0
   -0.2783   -5.2377   29.9403 N   0  0  0  0  0  0  0  0  0  0  0  0
    0.5905   -4.0914   30.0597 C   0  0  0  0  0  0  0  0  0  0  0  0
    1.9250   -4.4104   29.3689 C   0  0  0  0  0  0  0  0  0  0  0  0
    2.8486   -5.1052   30.3454 C   0  0  0  0  0  0  0  0  0  0  0  0
    3.1992   -4.1921   31.5136 C   0  0  0  0  0  0  0  0  0  0  0  0
    2.1932   -3.0552   31.7118 C   0  0  0  0  0  0  0  0  0  0  0  0
    0.7561   -3.5260   31.4703 C   0  0  0  0  0  0  0  0  0  0  0  0
    0.4286   -4.4932   32.5554 C   0  0  0  0  0  0  0  0  0  0  0  0
    0.7191   -4.2252   33.7252 O   0  0  0  0  0  0  0  0  0  0  0  0
    0.9220   -3.4068   37.3336 N   0  0  0  0  0  0  0  0  0  0  0  0
    0.0774   -3.9687   38.1940 N   0  0  0  0  0  0  0  0  0  0  0  0
   -0.9460   -3.5252   40.7751 H   0  0  0  0  0  0  0  0  0  0  0  0
   -2.0913   -4.0674   39.5132 H   0  0  0  0  0  0  0  0  0  0  0  0
   -2.4824   -4.2646   41.2139 H   0  0  0  0  0  0  0  0  0  0  0  0
   -2.2370   -6.3672   42.1076 H   0  0  0  0  0  0  0  0  0  0  0  0
   -1.2477   -8.6220   42.1582 H   0  0  0  0  0  0  0  0  0  0  0  0
    0.5247   -9.2385   40.5480 H   0  0  0  0  0  0  0  0  0  0  0  0
    1.3755   -7.6031   38.9684 H   0  0  0  0  0  0  0  0  0  0  0  0
    2.6940   -5.8365   38.6709 H   0  0  0  0  0  0  0  0  0  0  0  0
    2.9330   -6.8864   34.6886 H   0  0  0  0  0  0  0  0  0  0  0  0
    2.8780   -6.9533   36.4395 H   0  0  0  0  0  0  0  0  0  0  0  0
    1.0319   -5.1210   35.0494 H   0  0  0  0  0  0  0  0  0  0  0  0
   -0.8149   -6.5501   37.0996 H   0  0  0  0  0  0  0  0  0  0  0  0
   -3.0981   -8.7220   34.5242 H   0  0  0  0  0  0  0  0  0  0  0  0
   -1.4497   -8.4776   32.7048 H   0  0  0  0  0  0  0  0  0  0  0  0
    0.7813   -7.7063   32.0624 H   0  0  0  0  0  0  0  0  0  0  0  0
    1.7007   -6.5683   32.9996 H   0  0  0  0  0  0  0  0  0  0  0  0
   -1.1950   -5.7008   32.7459 H   0  0  0  0  0  0  0  0  0  0  0  0
   -0.5766   -5.4837   28.9958 H   0  0  0  0  0  0  0  0  0  0  0  0
    0.1074   -3.3210   29.4438 H   0  0  0  0  0  0  0  0  0  0  0  0
    2.3934   -3.4854   29.0090 H   0  0  0  0  0  0  0  0  0  0  0  0
    1.7811   -5.0397   28.4858 H   0  0  0  0  0  0  0  0  0  0  0  0
    3.7654   -5.4214   29.8356 H   0  0  0  0  0  0  0  0  0  0  0  0
    2.3674   -6.0081   30.7186 H   0  0  0  0  0  0  0  0  0  0  0  0
    3.2914   -4.7887   32.4286 H   0  0  0  0  0  0  0  0  0  0  0  0
    4.1891   -3.7495   31.3475 H   0  0  0  0  0  0  0  0  0  0  0  0
    2.3219   -2.6282   32.7140 H   0  0  0  0  0  0  0  0  0  0  0  0
    2.4239   -2.2388   31.0147 H   0  0  0  0  0  0  0  0  0  0  0  0
    0.0623   -2.6847   31.5949 H   0  0  0  0  0  0  0  0  0  0  0  0
  1  2  1  0
  2  3  2  0
  3  4  1  0
  4  5  2  0
  5  6  1  0
  6  7  2  0
  7  8  1  0
  8  9  1  0
  9 10  2  0
 10 11  1  0
 11 12  2  0
 11 13  1  0
 13 14  1  0
 14 15  1  0
 15 16  1  0
 16 17  2  0
 17 18  1  0
 18 19  2  0
 19 20  1  0
 20 21  2  0
 21 22  1  0
 22 23  1  0
 23 24  1  0
 24 25  2  0
 24 26  1  0
 26 27  1  0
 27 28  1  0
 28 29  1  0
 29 30  1  0
 30 31  1  0
 31 32  1  0
 32 33  1  0
 33 34  2  0
 10 35  1  0
 35 36  2  0
  7  2  1  0
 36  8  1  0
 21 16  1  0
 33 23  1  0
 32 27  1  0
  1 37  1  0
  1 38  1  0
  1 39  1  0
  3 40  1  0
  4 41  1  0
  5 42  1  0
  6 43  1  0
  9 44  1  0
 14 45  1  0
 14 46  1  0
 15 47  1  0
 17 48  1  0
 19 49  1  0
 20 50  1  0
 22 51  1  0
 22 52  1  0
 23 53  1  0
 26 54  1  0
 27 55  1  0
 28 56  1  0
 28 57  1  0
 29 58  1  0
 29 59  1  0
 30 60  1  0
 30 61  1  0
 31 62  1  0
 31 63  1  0
 32 64  1  0
M  END
>  <Energy>  (705) 
91.639088056367953

>  <compound_id>  (705) 
4314

>  <target_id>  (705) 
1

>  <reference_id>  (705) 
164

>  <inspiration_ids>  (705) 
[150, 164]

>  <energy_score>  (705) 
-16.30201909696403

>  <distance_score>  (705) 
2.944534078635434

>  <path>  (705) 
/opt/xchem-fragalysis-2/maxwin/BulkDock/SCRATCH/505735/C4314-P164/C4314-P164.minimised.mol

>  <scratch_subdir>  (705) 
/opt/xchem-fragalysis-2/maxwin/BulkDock/SCRATCH/505735/C4314-P164

>  <fragmenstein_runtime>  (705) 
25.272151470184326

>  <fragmenstein_outcome>  (705) 
too moved

>  <fragmenstein_mode>  (705) 
expansion

>  <fragmenstein_error>  (705) 


$$$$
C4315-P150
     RDKit          3D

 62 66  0  0  0  0  0  0  0  0999 V2000
    7.1482   -4.0440   33.5673 O   0  0  0  0  0  0  0  0  0  0  0  0
    6.0706   -3.5015   33.7836 C   0  0  0  0  0  0  0  0  0  0  0  0
    5.9554   -2.2463   34.3424 O   0  0  0  0  0  0  0  0  0  0  0  0
    4.6553   -1.7050   34.4322 N   0  0  0  0  0  0  0  0  0  0  0  0
    3.7554   -2.2492   35.3841 C   0  0  0  0  0  0  0  0  0  0  0  0
    2.3926   -2.0432   35.1708 C   0  0  0  0  0  0  0  0  0  0  0  0
    1.4548   -2.7602   35.9221 C   0  0  0  0  0  0  0  0  0  0  0  0
   -0.0239   -2.7095   35.5653 C   0  0  0  0  0  0  0  0  0  0  0  0
   -0.2748   -3.5011   34.2824 C   0  0  0  0  0  0  0  0  0  0  0  0
   -1.2106   -2.8946   33.2307 C   0  0  0  0  0  0  0  0  0  0  0  0
   -1.6581   -1.7559   33.2577 O   0  0  0  0  0  0  0  0  0  0  0  0
   -1.4102   -3.7311   32.1196 N   0  0  0  0  0  0  0  0  0  0  0  0
   -0.5961   -4.9294   32.0443 C   0  0  0  0  0  0  0  0  0  0  0  0
   -0.4933   -5.6482   30.7098 C   0  0  0  0  0  0  0  0  0  0  0  0
   -1.0972   -7.0408   30.7363 C   0  0  0  0  0  0  0  0  0  0  0  0
   -0.4980   -7.8655   31.8338 C   0  0  0  0  0  0  0  0  0  0  0  0
   -0.5198   -7.2666   33.2297 C   0  0  0  0  0  0  0  0  0  0  0  0
   -0.9017   -5.7997   33.2735 C   0  0  0  0  0  0  0  0  0  0  0  0
   -0.6691   -4.9453   34.5333 C   0  0  0  0  0  0  0  0  0  0  0  0
   -0.9090   -5.3470   35.6694 O   0  0  0  0  0  0  0  0  0  0  0  0
    1.9300   -3.5869   36.9296 C   0  0  0  0  0  0  0  0  0  0  0  0
    3.3005   -3.7015   37.1095 C   0  0  0  0  0  0  0  0  0  0  0  0
    4.2173   -3.0712   36.3464 N   0  0  0  0  0  0  0  0  0  0  0  0
    4.8160   -4.2239   33.4751 C   0  0  0  0  0  0  0  0  0  0  0  0
    4.0228   -3.8332   32.3962 C   0  0  0  0  0  0  0  0  0  0  0  0
    2.8029   -4.4438   32.2353 C   0  0  0  0  0  0  0  0  0  0  0  0
    2.3959   -5.4324   33.1575 C   0  0  0  0  0  0  0  0  0  0  0  0
    3.1505   -5.8319   34.2521 C   0  0  0  0  0  0  0  0  0  0  0  0
    2.8069   -6.9417   35.0766 N   0  0  0  0  0  0  0  0  0  0  0  0
    1.8719   -6.9157   36.1377 C   0  0  0  0  0  0  0  0  0  0  0  0
    0.6733   -7.4434   35.9576 N   0  0  0  0  0  0  0  0  0  0  0  0
   -0.1234   -7.5754   37.0433 C   0  0  0  0  0  0  0  0  0  0  0  0
    0.2276   -7.2017   38.3092 C   0  0  0  0  0  0  0  0  0  0  0  0
    1.5050   -6.7381   38.4062 C   0  0  0  0  0  0  0  0  0  0  0  0
    2.3493   -6.6222   37.3552 N   0  0  0  0  0  0  0  0  0  0  0  0
    4.4022   -5.2436   34.3563 C   0  0  0  0  0  0  0  0  0  0  0  0
    4.6826   -0.6949   34.5532 H   0  0  0  0  0  0  0  0  0  0  0  0
    2.0657   -1.4035   34.3559 H   0  0  0  0  0  0  0  0  0  0  0  0
   -0.6287   -3.0632   36.4081 H   0  0  0  0  0  0  0  0  0  0  0  0
   -0.2936   -1.6542   35.4336 H   0  0  0  0  0  0  0  0  0  0  0  0
    0.6913   -3.5225   33.7777 H   0  0  0  0  0  0  0  0  0  0  0  0
   -1.7897   -3.2607   31.3012 H   0  0  0  0  0  0  0  0  0  0  0  0
    0.3812   -4.4922   32.1244 H   0  0  0  0  0  0  0  0  0  0  0  0
    0.5733   -5.7877   30.4792 H   0  0  0  0  0  0  0  0  0  0  0  0
   -0.8468   -5.0234   29.8853 H   0  0  0  0  0  0  0  0  0  0  0  0
   -2.1663   -7.0619   30.9009 H   0  0  0  0  0  0  0  0  0  0  0  0
   -0.9097   -7.5217   29.7722 H   0  0  0  0  0  0  0  0  0  0  0  0
   -0.9512   -8.8596   31.8387 H   0  0  0  0  0  0  0  0  0  0  0  0
    0.5342   -7.9642   31.5406 H   0  0  0  0  0  0  0  0  0  0  0  0
    0.4439   -7.4647   33.6837 H   0  0  0  0  0  0  0  0  0  0  0  0
   -1.2332   -7.8337   33.8438 H   0  0  0  0  0  0  0  0  0  0  0  0
   -1.9608   -5.9262   33.3042 H   0  0  0  0  0  0  0  0  0  0  0  0
    1.2412   -4.1400   37.5570 H   0  0  0  0  0  0  0  0  0  0  0  0
    3.7082   -4.3372   37.8900 H   0  0  0  0  0  0  0  0  0  0  0  0
    4.3603   -3.0590   31.7135 H   0  0  0  0  0  0  0  0  0  0  0  0
    2.2214   -4.2007   31.3520 H   0  0  0  0  0  0  0  0  0  0  0  0
    1.5445   -6.0283   32.9111 H   0  0  0  0  0  0  0  0  0  0  0  0
    3.6276   -7.0624   35.6797 H   0  0  0  0  0  0  0  0  0  0  0  0
   -1.0726   -8.0371   36.8064 H   0  0  0  0  0  0  0  0  0  0  0  0
   -0.4254   -7.3049   39.1601 H   0  0  0  0  0  0  0  0  0  0  0  0
    1.9210   -6.4461   39.3662 H   0  0  0  0  0  0  0  0  0  0  0  0
    5.0777   -5.5160   35.1667 H   0  0  0  0  0  0  0  0  0  0  0  0
  1  2  2  0
  2  3  1  0
  3  4  1  0
  4  5  1  0
  5  6  2  0
  6  7  1  0
  7  8  1  0
  8  9  1  0
  9 10  1  0
 10 11  2  0
 10 12  1  0
 12 13  1  0
 13 14  1  0
 14 15  1  0
 15 16  1  0
 16 17  1  0
 17 18  1  0
 18 19  1  0
 19 20  2  0
  7 21  2  0
 21 22  1  0
 22 23  2  0
  2 24  1  0
 24 25  2  0
 25 26  1  0
 26 27  2  0
 27 28  1  0
 28 29  1  0
 29 30  1  0
 30 31  2  0
 31 32  1  0
 32 33  2  0
 33 34  1  0
 34 35  2  0
 28 36  2  0
 23  5  1  0
 36 24  1  0
 19  9  1  0
 35 30  1  0
 18 13  1  0
  4 37  1  0
  6 38  1  0
  8 39  1  0
  8 40  1  0
  9 41  1  0
 12 42  1  0
 13 43  1  0
 14 44  1  0
 14 45  1  0
 15 46  1  0
 15 47  1  0
 16 48  1  0
 16 49  1  0
 17 50  1  0
 17 51  1  0
 18 52  1  0
 21 53  1  0
 22 54  1  0
 25 55  1  0
 26 56  1  0
 27 57  1  0
 29 58  1  0
 32 59  1  0
 33 60  1  0
 34 61  1  0
 36 62  1  0
M  END
>  <Energy>  (706) 
47.379238788788335

>  <compound_id>  (706) 
4315

>  <target_id>  (706) 
1

>  <reference_id>  (706) 
150

>  <inspiration_ids>  (706) 
[150, 165]

>  <energy_score>  (706) 
12.26031709836306

>  <distance_score>  (706) 
3.4046871407664447

>  <path>  (706) 
/opt/xchem-fragalysis-2/maxwin/BulkDock/SCRATCH/505735/C4315-P150/C4315-P150.minimised.mol

>  <scratch_subdir>  (706) 
/opt/xchem-fragalysis-2/maxwin/BulkDock/SCRATCH/505735/C4315-P150

>  <fragmenstein_runtime>  (706) 
10.972313165664673

>  <fragmenstein_outcome>  (706) 
too moved

>  <fragmenstein_mode>  (706) 
expansion

>  <fragmenstein_error>  (706) 


$$$$
C4315-P165
     RDKit          3D

 62 66  0  0  0  0  0  0  0  0999 V2000
    1.4600   -2.9481   31.0485 O   0  0  0  0  0  0  0  0  0  0  0  0
    2.6106   -3.1044   31.4195 C   0  0  0  0  0  0  0  0  0  0  0  0
    3.5957   -2.1443   31.4171 O   0  0  0  0  0  0  0  0  0  0  0  0
    3.4588   -1.2187   32.4838 N   0  0  0  0  0  0  0  0  0  0  0  0
    3.6636   -1.6836   33.8197 C   0  0  0  0  0  0  0  0  0  0  0  0
    2.6240   -1.4926   34.7177 C   0  0  0  0  0  0  0  0  0  0  0  0
    2.6172   -2.1652   35.9434 C   0  0  0  0  0  0  0  0  0  0  0  0
    1.3072   -2.2589   36.7073 C   0  0  0  0  0  0  0  0  0  0  0  0
    0.4535   -3.2160   35.9179 C   0  0  0  0  0  0  0  0  0  0  0  0
   -0.3643   -2.6299   34.7750 C   0  0  0  0  0  0  0  0  0  0  0  0
   -0.6068   -1.4438   34.6026 O   0  0  0  0  0  0  0  0  0  0  0  0
   -0.8580   -3.6177   33.9380 N   0  0  0  0  0  0  0  0  0  0  0  0
   -0.7535   -4.9877   34.3922 C   0  0  0  0  0  0  0  0  0  0  0  0
   -1.1516   -6.0506   33.3837 C   0  0  0  0  0  0  0  0  0  0  0  0
   -1.0756   -7.4636   33.9284 C   0  0  0  0  0  0  0  0  0  0  0  0
   -1.6788   -7.5650   35.3176 C   0  0  0  0  0  0  0  0  0  0  0  0
   -1.1575   -6.5218   36.2883 C   0  0  0  0  0  0  0  0  0  0  0  0
   -1.2529   -5.1038   35.8324 C   0  0  0  0  0  0  0  0  0  0  0  0
   -0.4586   -4.1273   36.7017 C   0  0  0  0  0  0  0  0  0  0  0  0
   -0.5809   -4.0841   37.9249 O   0  0  0  0  0  0  0  0  0  0  0  0
    3.7330   -2.9168   36.2951 C   0  0  0  0  0  0  0  0  0  0  0  0
    4.7763   -2.9781   35.3924 C   0  0  0  0  0  0  0  0  0  0  0  0
    4.7541   -2.4025   34.1634 N   0  0  0  0  0  0  0  0  0  0  0  0
    3.1429   -4.3379   32.0451 C   0  0  0  0  0  0  0  0  0  0  0  0
    4.5107   -4.5222   32.0856 C   0  0  0  0  0  0  0  0  0  0  0  0
    5.0436   -5.2986   33.0992 C   0  0  0  0  0  0  0  0  0  0  0  0
    4.2142   -5.9315   34.0247 C   0  0  0  0  0  0  0  0  0  0  0  0
    2.8335   -5.8838   33.9001 C   0  0  0  0  0  0  0  0  0  0  0  0
    2.0394   -6.6545   34.7615 N   0  0  0  0  0  0  0  0  0  0  0  0
    2.1178   -6.7251   36.1682 C   0  0  0  0  0  0  0  0  0  0  0  0
    1.7320   -7.8842   36.7117 N   0  0  0  0  0  0  0  0  0  0  0  0
    1.3794   -7.8840   38.0303 C   0  0  0  0  0  0  0  0  0  0  0  0
    1.4471   -6.7878   38.8385 C   0  0  0  0  0  0  0  0  0  0  0  0
    1.9444   -5.6789   38.2153 C   0  0  0  0  0  0  0  0  0  0  0  0
    2.2817   -5.6225   36.9022 N   0  0  0  0  0  0  0  0  0  0  0  0
    2.3028   -5.1284   32.8429 C   0  0  0  0  0  0  0  0  0  0  0  0
    2.5782   -0.7126   32.3973 H   0  0  0  0  0  0  0  0  0  0  0  0
    1.7633   -0.9007   34.4200 H   0  0  0  0  0  0  0  0  0  0  0  0
    1.5040   -2.6025   37.7279 H   0  0  0  0  0  0  0  0  0  0  0  0
    0.8559   -1.2635   36.7902 H   0  0  0  0  0  0  0  0  0  0  0  0
    1.1802   -3.8894   35.4595 H   0  0  0  0  0  0  0  0  0  0  0  0
   -1.5995   -3.3174   33.3144 H   0  0  0  0  0  0  0  0  0  0  0  0
    0.3030   -5.1660   34.4639 H   0  0  0  0  0  0  0  0  0  0  0  0
   -0.5624   -5.9836   32.4637 H   0  0  0  0  0  0  0  0  0  0  0  0
   -2.1483   -5.8655   33.0616 H   0  0  0  0  0  0  0  0  0  0  0  0
   -1.5955   -8.1451   33.2448 H   0  0  0  0  0  0  0  0  0  0  0  0
   -0.0411   -7.7990   33.9495 H   0  0  0  0  0  0  0  0  0  0  0  0
   -2.7530   -7.4983   35.1930 H   0  0  0  0  0  0  0  0  0  0  0  0
   -1.4723   -8.5434   35.7516 H   0  0  0  0  0  0  0  0  0  0  0  0
   -0.1276   -6.7338   36.4112 H   0  0  0  0  0  0  0  0  0  0  0  0
   -1.5379   -6.6110   37.2981 H   0  0  0  0  0  0  0  0  0  0  0  0
   -2.2577   -4.7519   35.9810 H   0  0  0  0  0  0  0  0  0  0  0  0
    3.7879   -3.4612   37.2292 H   0  0  0  0  0  0  0  0  0  0  0  0
    5.6797   -3.5340   35.6233 H   0  0  0  0  0  0  0  0  0  0  0  0
    5.1900   -3.9431   31.4640 H   0  0  0  0  0  0  0  0  0  0  0  0
    6.1240   -5.3650   33.2102 H   0  0  0  0  0  0  0  0  0  0  0  0
    4.6771   -6.4969   34.8310 H   0  0  0  0  0  0  0  0  0  0  0  0
    1.9502   -7.6168   34.4698 H   0  0  0  0  0  0  0  0  0  0  0  0
    1.0039   -8.8287   38.4087 H   0  0  0  0  0  0  0  0  0  0  0  0
    1.1485   -6.7976   39.8755 H   0  0  0  0  0  0  0  0  0  0  0  0
    2.0635   -4.7489   38.7648 H   0  0  0  0  0  0  0  0  0  0  0  0
    1.2446   -4.9985   32.6984 H   0  0  0  0  0  0  0  0  0  0  0  0
  1  2  2  0
  2  3  1  0
  3  4  1  0
  4  5  1  0
  5  6  2  0
  6  7  1  0
  7  8  1  0
  8  9  1  0
  9 10  1  0
 10 11  2  0
 10 12  1  0
 12 13  1  0
 13 14  1  0
 14 15  1  0
 15 16  1  0
 16 17  1  0
 17 18  1  0
 18 19  1  0
 19 20  2  0
  7 21  2  0
 21 22  1  0
 22 23  2  0
  2 24  1  0
 24 25  2  0
 25 26  1  0
 26 27  2  0
 27 28  1  0
 28 29  1  0
 29 30  1  0
 30 31  2  0
 31 32  1  0
 32 33  2  0
 33 34  1  0
 34 35  2  0
 28 36  2  0
 23  5  1  0
 36 24  1  0
 19  9  1  0
 35 30  1  0
 18 13  1  0
  4 37  1  0
  6 38  1  0
  8 39  1  0
  8 40  1  0
  9 41  1  0
 12 42  1  0
 13 43  1  0
 14 44  1  0
 14 45  1  0
 15 46  1  0
 15 47  1  0
 16 48  1  0
 16 49  1  0
 17 50  1  0
 17 51  1  0
 18 52  1  0
 21 53  1  0
 22 54  1  0
 25 55  1  0
 26 56  1  0
 27 57  1  0
 29 58  1  0
 32 59  1  0
 33 60  1  0
 34 61  1  0
 36 62  1  0
M  END
>  <Energy>  (707) 
36.239503531067868

>  <compound_id>  (707) 
4315

>  <target_id>  (707) 
1

>  <reference_id>  (707) 
165

>  <inspiration_ids>  (707) 
[150, 165]

>  <energy_score>  (707) 
1.1205818406419468

>  <distance_score>  (707) 
3.273161137453703

>  <path>  (707) 
/opt/xchem-fragalysis-2/maxwin/BulkDock/SCRATCH/505735/C4315-P165/C4315-P165.minimised.mol

>  <scratch_subdir>  (707) 
/opt/xchem-fragalysis-2/maxwin/BulkDock/SCRATCH/505735/C4315-P165

>  <fragmenstein_runtime>  (707) 
8.971734762191772

>  <fragmenstein_outcome>  (707) 
too moved

>  <fragmenstein_mode>  (707) 
expansion

>  <fragmenstein_error>  (707) 


$$$$
C4316-P150
     RDKit          3D

 70 74  0  0  0  0  0  0  0  0999 V2000
   -1.6306   -8.4978   33.5137 C   0  0  0  0  0  0  0  0  0  0  0  0
   -1.4994   -9.1386   31.8808 S   0  0  0  0  0  0  0  0  0  0  0  0
   -2.7332   -8.5996   31.3432 O   0  0  0  0  0  0  0  0  0  0  0  0
   -0.2558   -8.4173   31.2633 N   0  0  0  0  0  0  0  0  0  0  0  0
   -0.2751   -6.9954   30.8229 N   0  0  0  0  0  0  0  0  0  0  0  0
   -0.2147   -5.8441   31.6302 C   0  0  0  0  0  0  0  0  0  0  0  0
    0.2011   -5.8937   32.9579 C   0  0  0  0  0  0  0  0  0  0  0  0
    0.0047   -4.7872   33.7915 C   0  0  0  0  0  0  0  0  0  0  0  0
    0.0454   -4.8947   35.3024 C   0  0  0  0  0  0  0  0  0  0  0  0
    1.3560   -5.3571   35.9407 C   0  0  0  0  0  0  0  0  0  0  0  0
    1.4107   -6.8538   36.1155 C   0  0  0  0  0  0  0  0  0  0  0  0
    1.8160   -7.6183   35.2421 O   0  0  0  0  0  0  0  0  0  0  0  0
    0.9609   -7.3422   37.3101 N   0  0  0  0  0  0  0  0  0  0  0  0
    0.1530   -6.5870   38.2509 C   0  0  0  0  0  0  0  0  0  0  0  0
    0.0688   -7.3411   39.5831 C   0  0  0  0  0  0  0  0  0  0  0  0
    1.3924   -7.3629   40.3436 C   0  0  0  0  0  0  0  0  0  0  0  0
    2.1823   -6.0656   40.2148 C   0  0  0  0  0  0  0  0  0  0  0  0
    1.2967   -4.8951   39.8082 C   0  0  0  0  0  0  0  0  0  0  0  0
    0.6233   -5.1356   38.4443 C   0  0  0  0  0  0  0  0  0  0  0  0
    1.5074   -4.6710   37.2867 C   0  0  0  0  0  0  0  0  0  0  0  0
    2.2450   -3.6883   37.3973 O   0  0  0  0  0  0  0  0  0  0  0  0
   -0.4309   -3.5999   33.2038 C   0  0  0  0  0  0  0  0  0  0  0  0
   -0.7170   -3.5978   31.8532 C   0  0  0  0  0  0  0  0  0  0  0  0
   -0.6522   -4.6976   31.0756 N   0  0  0  0  0  0  0  0  0  0  0  0
   -1.4364  -11.3725   31.3161 C   0  0  0  0  0  0  0  0  0  0  0  0
   -1.0143  -12.9806   32.4805 C   0  0  0  0  0  0  0  0  0  0  0  0
    0.2613  -13.4334   33.1329 C   0  0  0  0  0  0  0  0  0  0  0  0
    1.3832  -13.5795   32.4142 C   0  0  0  0  0  0  0  0  0  0  0  0
    2.1834  -14.6545   32.7273 N   0  0  0  0  0  0  0  0  0  0  0  0
    1.7043  -15.9512   32.0509 C   0  0  0  0  0  0  0  0  0  0  0  0
    0.0026  -16.3979   32.5728 C   0  0  0  0  0  0  0  0  0  0  0  0
   -0.3982  -15.7412   33.8575 N   0  0  0  0  0  0  0  0  0  0  0  0
    0.7140  -15.3501   34.8281 C   0  0  0  0  0  0  0  0  0  0  0  0
    2.1630  -14.8801   34.2187 C   0  0  0  0  0  0  0  0  0  0  0  0
    1.1800  -12.4786   31.5259 C   0  0  0  0  0  0  0  0  0  0  0  0
   -0.2859  -11.4638   30.7555 C   0  0  0  0  0  0  0  0  0  0  0  0
   -0.7335   -8.5608   34.1134 H   0  0  0  0  0  0  0  0  0  0  0  0
   -2.5321   -8.8056   34.0330 H   0  0  0  0  0  0  0  0  0  0  0  0
   -1.8095   -7.4253   33.3971 H   0  0  0  0  0  0  0  0  0  0  0  0
   -0.7731   -6.7579   29.9625 H   0  0  0  0  0  0  0  0  0  0  0  0
    0.5652   -6.8330   33.3516 H   0  0  0  0  0  0  0  0  0  0  0  0
   -0.2275   -3.9135   35.7153 H   0  0  0  0  0  0  0  0  0  0  0  0
   -0.7779   -5.5626   35.5905 H   0  0  0  0  0  0  0  0  0  0  0  0
    2.2224   -5.0645   35.3339 H   0  0  0  0  0  0  0  0  0  0  0  0
    0.8733   -8.3560   37.3295 H   0  0  0  0  0  0  0  0  0  0  0  0
   -0.8475   -6.5618   37.8054 H   0  0  0  0  0  0  0  0  0  0  0  0
   -0.6979   -6.8687   40.2107 H   0  0  0  0  0  0  0  0  0  0  0  0
   -0.2491   -8.3765   39.4309 H   0  0  0  0  0  0  0  0  0  0  0  0
    1.1852   -7.5677   41.4010 H   0  0  0  0  0  0  0  0  0  0  0  0
    2.0144   -8.1950   39.9912 H   0  0  0  0  0  0  0  0  0  0  0  0
    2.9759   -6.1949   39.4682 H   0  0  0  0  0  0  0  0  0  0  0  0
    2.6856   -5.8464   41.1635 H   0  0  0  0  0  0  0  0  0  0  0  0
    1.8896   -3.9737   39.8058 H   0  0  0  0  0  0  0  0  0  0  0  0
    0.5218   -4.7521   40.5727 H   0  0  0  0  0  0  0  0  0  0  0  0
   -0.2621   -4.4854   38.4079 H   0  0  0  0  0  0  0  0  0  0  0  0
   -0.5973   -2.6998   33.7874 H   0  0  0  0  0  0  0  0  0  0  0  0
   -1.0589   -2.6952   31.3529 H   0  0  0  0  0  0  0  0  0  0  0  0
   -1.1610  -13.1949   33.6889 H   0  0  0  0  0  0  0  0  0  0  0  0
    0.2558  -13.6084   34.1645 H   0  0  0  0  0  0  0  0  0  0  0  0
    2.3782  -16.7917   32.1818 H   0  0  0  0  0  0  0  0  0  0  0  0
    1.8073  -15.9177   30.9488 H   0  0  0  0  0  0  0  0  0  0  0  0
   -0.1651  -17.4601   32.5483 H   0  0  0  0  0  0  0  0  0  0  0  0
   -0.7499  -16.3371   31.7588 H   0  0  0  0  0  0  0  0  0  0  0  0
   -1.1015  -16.2285   34.4052 H   0  0  0  0  0  0  0  0  0  0  0  0
    0.3294  -14.5861   35.5144 H   0  0  0  0  0  0  0  0  0  0  0  0
    0.7878  -16.0844   35.6113 H   0  0  0  0  0  0  0  0  0  0  0  0
    2.9815  -15.5491   34.4030 H   0  0  0  0  0  0  0  0  0  0  0  0
    2.5581  -14.0191   34.7425 H   0  0  0  0  0  0  0  0  0  0  0  0
    2.2308  -12.2365   31.1521 H   0  0  0  0  0  0  0  0  0  0  0  0
   -0.3098  -10.3848   30.3430 H   0  0  0  0  0  0  0  0  0  0  0  0
  1  2  1  0
  2  3  2  0
  2  4  2  0
  4  5  1  0
  5  6  1  0
  6  7  2  0
  7  8  1  0
  8  9  1  0
  9 10  1  0
 10 11  1  0
 11 12  2  0
 11 13  1  0
 13 14  1  0
 14 15  1  0
 15 16  1  0
 16 17  1  0
 17 18  1  0
 18 19  1  0
 19 20  1  0
 20 21  2  0
  8 22  2  0
 22 23  1  0
 23 24  2  0
  2 25  1  0
 25 26  2  0
 26 27  1  0
 27 28  2  0
 28 29  1  0
 29 30  1  0
 30 31  1  0
 31 32  1  0
 32 33  1  0
 33 34  1  0
 28 35  1  0
 35 36  2  0
 24  6  1  0
 36 25  1  0
 20 10  1  0
 34 29  1  0
 19 14  1  0
  1 37  1  0
  1 38  1  0
  1 39  1  0
  5 40  1  0
  7 41  1  0
  9 42  1  0
  9 43  1  0
 10 44  1  0
 13 45  1  0
 14 46  1  0
 15 47  1  0
 15 48  1  0
 16 49  1  0
 16 50  1  0
 17 51  1  0
 17 52  1  0
 18 53  1  0
 18 54  1  0
 19 55  1  0
 22 56  1  0
 23 57  1  0
 26 58  1  0
 27 59  1  0
 30 60  1  0
 30 61  1  0
 31 62  1  0
 31 63  1  0
 32 64  1  0
 33 65  1  0
 33 66  1  0
 34 67  1  0
 34 68  1  0
 35 69  1  0
 36 70  1  0
M  END
>  <Energy>  (708) 
725.63941656169868

>  <compound_id>  (708) 
4316

>  <target_id>  (708) 
1

>  <reference_id>  (708) 
150

>  <inspiration_ids>  (708) 
[150, 166]

>  <energy_score>  (708) 
508.71732190909916

>  <distance_score>  (708) 
2.552631173701278

>  <path>  (708) 
/opt/xchem-fragalysis-2/maxwin/BulkDock/SCRATCH/505735/C4316-P150/C4316-P150.minimised.mol

>  <scratch_subdir>  (708) 
/opt/xchem-fragalysis-2/maxwin/BulkDock/SCRATCH/505735/C4316-P150

>  <fragmenstein_runtime>  (708) 
19.192098379135132

>  <fragmenstein_outcome>  (708) 
too moved

>  <fragmenstein_mode>  (708) 
expansion

>  <fragmenstein_error>  (708) 


$$$$
C4316-P166
     RDKit          3D

 70 74  0  0  0  0  0  0  0  0999 V2000
   -1.7383   -6.9542   33.6310 C   0  0  0  0  0  0  0  0  0  0  0  0
   -1.6194   -7.7310   32.0507 S   0  0  0  0  0  0  0  0  0  0  0  0
   -2.9424   -8.1593   31.6852 O   0  0  0  0  0  0  0  0  0  0  0  0
   -0.7584   -6.9018   31.0876 N   0  0  0  0  0  0  0  0  0  0  0  0
    0.6073   -6.4324   31.2223 N   0  0  0  0  0  0  0  0  0  0  0  0
    1.1870   -5.4147   31.9989 C   0  0  0  0  0  0  0  0  0  0  0  0
    0.5426   -4.8173   33.0647 C   0  0  0  0  0  0  0  0  0  0  0  0
    1.2765   -4.1634   34.0568 C   0  0  0  0  0  0  0  0  0  0  0  0
    0.6483   -3.9011   35.4073 C   0  0  0  0  0  0  0  0  0  0  0  0
    1.1931   -4.8021   36.5456 C   0  0  0  0  0  0  0  0  0  0  0  0
    1.0111   -6.2887   36.2771 C   0  0  0  0  0  0  0  0  0  0  0  0
    1.4049   -6.8525   35.2565 O   0  0  0  0  0  0  0  0  0  0  0  0
    0.3980   -7.0439   37.2264 N   0  0  0  0  0  0  0  0  0  0  0  0
    0.2003   -6.6333   38.5922 C   0  0  0  0  0  0  0  0  0  0  0  0
    1.4416   -6.8593   39.4541 C   0  0  0  0  0  0  0  0  0  0  0  0
    1.1735   -6.5469   40.9278 C   0  0  0  0  0  0  0  0  0  0  0  0
   -0.1589   -5.8387   41.1719 C   0  0  0  0  0  0  0  0  0  0  0  0
   -0.4135   -4.7288   40.1531 C   0  0  0  0  0  0  0  0  0  0  0  0
   -0.2955   -5.1955   38.6851 C   0  0  0  0  0  0  0  0  0  0  0  0
    0.6275   -4.2979   37.8645 C   0  0  0  0  0  0  0  0  0  0  0  0
    0.8702   -3.1381   38.2166 O   0  0  0  0  0  0  0  0  0  0  0  0
    2.6141   -3.8964   33.8082 C   0  0  0  0  0  0  0  0  0  0  0  0
    3.1531   -4.3692   32.6271 C   0  0  0  0  0  0  0  0  0  0  0  0
    2.4834   -5.1468   31.7431 N   0  0  0  0  0  0  0  0  0  0  0  0
   -0.9791   -9.2923   32.4243 C   0  0  0  0  0  0  0  0  0  0  0  0
   -0.6450   -9.5833   34.0247 C   0  0  0  0  0  0  0  0  0  0  0  0
   -0.0659  -11.4472   34.6873 C   0  0  0  0  0  0  0  0  0  0  0  0
   -0.6929  -13.0664   33.5552 C   0  0  0  0  0  0  0  0  0  0  0  0
   -0.4503  -14.3838   33.3289 N   0  0  0  0  0  0  0  0  0  0  0  0
   -1.7951  -15.0438   32.5004 C   0  0  0  0  0  0  0  0  0  0  0  0
   -1.5390  -16.3864   32.0061 C   0  0  0  0  0  0  0  0  0  0  0  0
   -0.6730  -16.7586   33.0473 N   0  0  0  0  0  0  0  0  0  0  0  0
   -0.9539  -16.0751   34.5341 C   0  0  0  0  0  0  0  0  0  0  0  0
    0.0143  -15.0071   34.5317 C   0  0  0  0  0  0  0  0  0  0  0  0
   -1.6056  -12.3235   31.8843 C   0  0  0  0  0  0  0  0  0  0  0  0
   -1.2568  -10.5750   31.2929 C   0  0  0  0  0  0  0  0  0  0  0  0
   -0.7552   -6.8825   34.0824 H   0  0  0  0  0  0  0  0  0  0  0  0
   -2.4026   -7.5265   34.2806 H   0  0  0  0  0  0  0  0  0  0  0  0
   -2.1338   -5.9570   33.5032 H   0  0  0  0  0  0  0  0  0  0  0  0
    1.1889   -6.5069   30.3910 H   0  0  0  0  0  0  0  0  0  0  0  0
   -0.5200   -4.9076   33.1741 H   0  0  0  0  0  0  0  0  0  0  0  0
   -0.4413   -4.0259   35.3409 H   0  0  0  0  0  0  0  0  0  0  0  0
    0.8084   -2.8414   35.6480 H   0  0  0  0  0  0  0  0  0  0  0  0
    2.2810   -4.6663   36.6316 H   0  0  0  0  0  0  0  0  0  0  0  0
    0.3730   -8.0438   37.0265 H   0  0  0  0  0  0  0  0  0  0  0  0
   -0.5783   -7.3007   38.9690 H   0  0  0  0  0  0  0  0  0  0  0  0
    1.7870   -7.8956   39.3596 H   0  0  0  0  0  0  0  0  0  0  0  0
    2.2724   -6.2385   39.0964 H   0  0  0  0  0  0  0  0  0  0  0  0
    1.1897   -7.4766   41.5113 H   0  0  0  0  0  0  0  0  0  0  0  0
    1.9956   -5.9310   41.3157 H   0  0  0  0  0  0  0  0  0  0  0  0
   -0.1724   -5.4231   42.1860 H   0  0  0  0  0  0  0  0  0  0  0  0
   -0.9785   -6.5674   41.1291 H   0  0  0  0  0  0  0  0  0  0  0  0
    0.2788   -3.9073   40.3740 H   0  0  0  0  0  0  0  0  0  0  0  0
   -1.4198   -4.3217   40.3177 H   0  0  0  0  0  0  0  0  0  0  0  0
   -1.2798   -5.1167   38.2048 H   0  0  0  0  0  0  0  0  0  0  0  0
    3.2325   -3.3579   34.5181 H   0  0  0  0  0  0  0  0  0  0  0  0
    4.1911   -4.1707   32.3745 H   0  0  0  0  0  0  0  0  0  0  0  0
   -0.6077   -8.8299   34.8228 H   0  0  0  0  0  0  0  0  0  0  0  0
    0.4156  -12.6195   33.7963 H   0  0  0  0  0  0  0  0  0  0  0  0
   -2.2090  -14.5609   31.6306 H   0  0  0  0  0  0  0  0  0  0  0  0
   -2.6461  -15.0094   33.1725 H   0  0  0  0  0  0  0  0  0  0  0  0
   -1.0499  -16.4038   31.0348 H   0  0  0  0  0  0  0  0  0  0  0  0
   -2.4313  -16.9901   31.9276 H   0  0  0  0  0  0  0  0  0  0  0  0
    0.2267  -16.3693   32.7722 H   0  0  0  0  0  0  0  0  0  0  0  0
   -1.9435  -15.6804   34.7094 H   0  0  0  0  0  0  0  0  0  0  0  0
   -0.8541  -16.6053   35.4764 H   0  0  0  0  0  0  0  0  0  0  0  0
    1.0583  -15.3100   34.4160 H   0  0  0  0  0  0  0  0  0  0  0  0
   -0.0377  -14.4998   35.4913 H   0  0  0  0  0  0  0  0  0  0  0  0
   -1.8874  -10.9516   32.2521 H   0  0  0  0  0  0  0  0  0  0  0  0
   -1.2967  -10.3885   30.2302 H   0  0  0  0  0  0  0  0  0  0  0  0
  1  2  1  0
  2  3  2  0
  2  4  2  0
  4  5  1  0
  5  6  1  0
  6  7  2  0
  7  8  1  0
  8  9  1  0
  9 10  1  0
 10 11  1  0
 11 12  2  0
 11 13  1  0
 13 14  1  0
 14 15  1  0
 15 16  1  0
 16 17  1  0
 17 18  1  0
 18 19  1  0
 19 20  1  0
 20 21  2  0
  8 22  2  0
 22 23  1  0
 23 24  2  0
  2 25  1  0
 25 26  2  0
 26 27  1  0
 27 28  2  0
 28 29  1  0
 29 30  1  0
 30 31  1  0
 31 32  1  0
 32 33  1  0
 33 34  1  0
 28 35  1  0
 35 36  2  0
 24  6  1  0
 36 25  1  0
 20 10  1  0
 34 29  1  0
 19 14  1  0
  1 37  1  0
  1 38  1  0
  1 39  1  0
  5 40  1  0
  7 41  1  0
  9 42  1  0
  9 43  1  0
 10 44  1  0
 13 45  1  0
 14 46  1  0
 15 47  1  0
 15 48  1  0
 16 49  1  0
 16 50  1  0
 17 51  1  0
 17 52  1  0
 18 53  1  0
 18 54  1  0
 19 55  1  0
 22 56  1  0
 23 57  1  0
 26 58  1  0
 27 59  1  0
 30 60  1  0
 30 61  1  0
 31 62  1  0
 31 63  1  0
 32 64  1  0
 33 65  1  0
 33 66  1  0
 34 67  1  0
 34 68  1  0
 35 69  1  0
 36 70  1  0
M  END
>  <Energy>  (709) 
1080.1349260492648

>  <compound_id>  (709) 
4316

>  <target_id>  (709) 
1

>  <reference_id>  (709) 
166

>  <inspiration_ids>  (709) 
[150, 166]

>  <energy_score>  (709) 
863.2128313966452

>  <distance_score>  (709) 
2.8453407911124593

>  <path>  (709) 
/opt/xchem-fragalysis-2/maxwin/BulkDock/SCRATCH/505735/C4316-P166/C4316-P166.minimised.mol

>  <scratch_subdir>  (709) 
/opt/xchem-fragalysis-2/maxwin/BulkDock/SCRATCH/505735/C4316-P166

>  <fragmenstein_runtime>  (709) 
19.24134874343872

>  <fragmenstein_outcome>  (709) 
too moved

>  <fragmenstein_mode>  (709) 
expansion

>  <fragmenstein_error>  (709) 


$$$$
C4322-P150
     RDKit          3D

 69 74  0  0  0  0  0  0  0  0999 V2000
    4.7127   -6.1023   26.4562 C   0  0  0  0  0  0  0  0  0  0  0  0
    4.6079   -4.5934   26.5529 C   0  0  0  0  0  0  0  0  0  0  0  0
    4.3390   -4.0058   28.2028 S   0  0  0  0  0  0  0  0  0  0  0  0
    4.5105   -2.5697   28.2289 O   0  0  0  0  0  0  0  0  0  0  0  0
    3.1393   -4.7486   28.8339 N   0  0  0  0  0  0  0  0  0  0  0  0
    2.6046   -4.2875   30.1266 N   0  0  0  0  0  0  0  0  0  0  0  0
    1.6311   -4.9505   30.8451 C   0  0  0  0  0  0  0  0  0  0  0  0
    1.3601   -4.4357   32.1804 C   0  0  0  0  0  0  0  0  0  0  0  0
    0.2723   -4.8682   32.8425 C   0  0  0  0  0  0  0  0  0  0  0  0
   -0.3775   -3.8536   33.6554 N   0  0  0  0  0  0  0  0  0  0  0  0
    0.4169   -3.0731   34.6362 C   0  0  0  0  0  0  0  0  0  0  0  0
    0.3975   -1.5487   34.4265 C   0  0  0  0  0  0  0  0  0  0  0  0
    0.4189   -0.9598   32.9932 C   0  0  0  0  0  0  0  0  0  0  0  0
   -0.2442   -1.7958   31.8760 C   0  0  0  0  0  0  0  0  0  0  0  0
   -0.6902   -1.1380   30.5776 C   0  0  0  0  0  0  0  0  0  0  0  0
   -0.4678    0.2240   30.3202 C   0  0  0  0  0  0  0  0  0  0  0  0
   -0.6580    0.7755   29.0505 C   0  0  0  0  0  0  0  0  0  0  0  0
   -1.0932   -0.0234   28.0101 C   0  0  0  0  0  0  0  0  0  0  0  0
   -1.3206   -1.3720   28.2385 C   0  0  0  0  0  0  0  0  0  0  0  0
   -1.1076   -1.9292   29.4969 C   0  0  0  0  0  0  0  0  0  0  0  0
   -1.4733   -2.8783   32.6378 S   0  0  0  0  0  0  0  0  0  0  0  0
   -2.0679   -3.7931   31.6870 O   0  0  0  0  0  0  0  0  0  0  0  0
   -2.2977   -2.0583   33.4970 O   0  0  0  0  0  0  0  0  0  0  0  0
   -0.3521   -6.0423   32.4081 N   0  0  0  0  0  0  0  0  0  0  0  0
   -1.2217   -6.9065   33.0076 C   0  0  0  0  0  0  0  0  0  0  0  0
   -1.5438   -7.8743   32.1744 N   0  0  0  0  0  0  0  0  0  0  0  0
   -0.8358   -7.6823   31.0111 N   0  0  0  0  0  0  0  0  0  0  0  0
   -0.0756   -6.6229   31.1860 C   0  0  0  0  0  0  0  0  0  0  0  0
    0.9062   -5.9908   30.3877 C   0  0  0  0  0  0  0  0  0  0  0  0
    5.5909   -4.6065   29.1693 N   0  0  0  0  0  0  0  0  0  0  0  0
    6.4241   -3.7402   29.9804 C   0  0  0  0  0  0  0  0  0  0  0  0
    5.7641   -3.3185   31.2749 C   0  0  0  0  0  0  0  0  0  0  0  0
    5.1589   -2.0455   31.3903 C   0  0  0  0  0  0  0  0  0  0  0  0
    4.5470   -1.6423   32.5815 C   0  0  0  0  0  0  0  0  0  0  0  0
    4.5549   -2.5280   33.6362 C   0  0  0  0  0  0  0  0  0  0  0  0
    5.1334   -3.7708   33.5333 C   0  0  0  0  0  0  0  0  0  0  0  0
    5.7399   -4.1971   32.3715 C   0  0  0  0  0  0  0  0  0  0  0  0
    5.0276   -4.4888   34.6834 O   0  0  0  0  0  0  0  0  0  0  0  0
    4.4186   -3.5135   35.5540 C   0  0  0  0  0  0  0  0  0  0  0  0
    4.0086   -2.3129   34.8631 O   0  0  0  0  0  0  0  0  0  0  0  0
    4.9176   -6.4053   25.4254 H   0  0  0  0  0  0  0  0  0  0  0  0
    3.7835   -6.5873   26.7709 H   0  0  0  0  0  0  0  0  0  0  0  0
    5.5214   -6.4887   27.0840 H   0  0  0  0  0  0  0  0  0  0  0  0
    3.7719   -4.2207   25.9554 H   0  0  0  0  0  0  0  0  0  0  0  0
    5.5252   -4.1197   26.1927 H   0  0  0  0  0  0  0  0  0  0  0  0
    2.6841   -3.2832   30.3118 H   0  0  0  0  0  0  0  0  0  0  0  0
    1.9247   -3.5582   32.4722 H   0  0  0  0  0  0  0  0  0  0  0  0
    0.0157   -3.2934   35.6331 H   0  0  0  0  0  0  0  0  0  0  0  0
    1.4557   -3.4153   34.6544 H   0  0  0  0  0  0  0  0  0  0  0  0
    1.2295   -1.1095   34.9923 H   0  0  0  0  0  0  0  0  0  0  0  0
   -0.4970   -1.1582   34.9304 H   0  0  0  0  0  0  0  0  0  0  0  0
   -0.0644    0.0219   33.0659 H   0  0  0  0  0  0  0  0  0  0  0  0
    1.4577   -0.7566   32.7048 H   0  0  0  0  0  0  0  0  0  0  0  0
    0.5388   -2.4293   31.4831 H   0  0  0  0  0  0  0  0  0  0  0  0
   -0.0934    0.8898   31.0926 H   0  0  0  0  0  0  0  0  0  0  0  0
   -0.4609    1.8277   28.8672 H   0  0  0  0  0  0  0  0  0  0  0  0
   -1.2690    0.3952   27.0250 H   0  0  0  0  0  0  0  0  0  0  0  0
   -1.6682   -2.0016   27.4258 H   0  0  0  0  0  0  0  0  0  0  0  0
   -1.2405   -3.0060   29.5788 H   0  0  0  0  0  0  0  0  0  0  0  0
   -1.5679   -6.7882   34.0239 H   0  0  0  0  0  0  0  0  0  0  0  0
    1.1161   -6.3877   29.4113 H   0  0  0  0  0  0  0  0  0  0  0  0
    5.1208   -5.2828   29.7590 H   0  0  0  0  0  0  0  0  0  0  0  0
    6.7661   -2.8657   29.4141 H   0  0  0  0  0  0  0  0  0  0  0  0
    7.3419   -4.2860   30.2331 H   0  0  0  0  0  0  0  0  0  0  0  0
    5.1736   -1.3610   30.5412 H   0  0  0  0  0  0  0  0  0  0  0  0
    4.0985   -0.6594   32.6738 H   0  0  0  0  0  0  0  0  0  0  0  0
    6.1965   -5.1801   32.3193 H   0  0  0  0  0  0  0  0  0  0  0  0
    5.1336   -3.2430   36.3403 H   0  0  0  0  0  0  0  0  0  0  0  0
    3.5368   -3.9655   36.0213 H   0  0  0  0  0  0  0  0  0  0  0  0
  1  2  1  0
  2  3  1  0
  3  4  2  0
  3  5  2  0
  5  6  1  0
  6  7  1  0
  7  8  1  0
  8  9  2  0
  9 10  1  0
 10 11  1  0
 11 12  1  0
 12 13  1  0
 13 14  1  0
 14 15  1  0
 15 16  2  0
 16 17  1  0
 17 18  2  0
 18 19  1  0
 19 20  2  0
 14 21  1  0
 21 22  2  0
 21 23  2  0
  9 24  1  0
 24 25  1  0
 25 26  2  0
 26 27  1  0
 27 28  2  0
 28 29  1  0
  3 30  1  0
 30 31  1  0
 31 32  1  0
 32 33  2  0
 33 34  1  0
 34 35  2  0
 35 36  1  0
 36 37  2  0
 36 38  1  0
 38 39  1  0
 39 40  1  0
 29  7  2  0
 37 32  1  0
 21 10  1  0
 28 24  1  0
 40 35  1  0
 20 15  1  0
  1 41  1  0
  1 42  1  0
  1 43  1  0
  2 44  1  0
  2 45  1  0
  6 46  1  0
  8 47  1  0
 11 48  1  0
 11 49  1  0
 12 50  1  0
 12 51  1  0
 13 52  1  0
 13 53  1  0
 14 54  1  0
 16 55  1  0
 17 56  1  0
 18 57  1  0
 19 58  1  0
 20 59  1  0
 25 60  1  0
 29 61  1  0
 30 62  1  0
 31 63  1  0
 31 64  1  0
 33 65  1  0
 34 66  1  0
 37 67  1  0
 39 68  1  0
 39 69  1  0
M  END
>  <Energy>  (710) 
45.880811120851618

>  <compound_id>  (710) 
4322

>  <target_id>  (710) 
1

>  <reference_id>  (710) 
150

>  <inspiration_ids>  (710) 
[150, 186]

>  <energy_score>  (710) 
-68.36871212371761

>  <distance_score>  (710) 
1.9023313562164794

>  <path>  (710) 
/opt/xchem-fragalysis-2/maxwin/BulkDock/SCRATCH/505735/C4322-P150/C4322-P150.minimised.mol

>  <scratch_subdir>  (710) 
/opt/xchem-fragalysis-2/maxwin/BulkDock/SCRATCH/505735/C4322-P150

>  <fragmenstein_runtime>  (710) 
9.953530073165894

>  <fragmenstein_outcome>  (710) 
too moved

>  <fragmenstein_mode>  (710) 
expansion

>  <fragmenstein_error>  (710) 


$$$$
C4322-P186
     RDKit          3D

 69 74  0  0  0  0  0  0  0  0999 V2000
    1.8643   -3.3197   26.2917 C   0  0  0  0  0  0  0  0  0  0  0  0
    3.2886   -2.9079   26.5860 C   0  0  0  0  0  0  0  0  0  0  0  0
    4.2249   -4.1076   27.5034 S   0  0  0  0  0  0  0  0  0  0  0  0
    5.3947   -3.4341   28.0250 O   0  0  0  0  0  0  0  0  0  0  0  0
    3.2938   -4.9838   28.3788 N   0  0  0  0  0  0  0  0  0  0  0  0
    2.9513   -4.4931   29.7241 N   0  0  0  0  0  0  0  0  0  0  0  0
    1.9803   -5.0430   30.5311 C   0  0  0  0  0  0  0  0  0  0  0  0
    1.7808   -4.3547   31.7970 C   0  0  0  0  0  0  0  0  0  0  0  0
    0.6500   -4.5556   32.4901 C   0  0  0  0  0  0  0  0  0  0  0  0
    0.1668   -3.3908   33.2577 N   0  0  0  0  0  0  0  0  0  0  0  0
   -1.2653   -3.3775   33.6351 C   0  0  0  0  0  0  0  0  0  0  0  0
   -2.1364   -3.2078   32.3613 C   0  0  0  0  0  0  0  0  0  0  0  0
   -1.8886   -2.0775   31.3647 C   0  0  0  0  0  0  0  0  0  0  0  0
   -0.4239   -1.9742   30.9711 C   0  0  0  0  0  0  0  0  0  0  0  0
   -0.0420   -0.8588   30.0239 C   0  0  0  0  0  0  0  0  0  0  0  0
   -0.8939    0.2051   29.7099 C   0  0  0  0  0  0  0  0  0  0  0  0
   -0.4440    1.2606   28.9168 C   0  0  0  0  0  0  0  0  0  0  0  0
    0.8420    1.2519   28.3863 C   0  0  0  0  0  0  0  0  0  0  0  0
    1.6836    0.1795   28.6398 C   0  0  0  0  0  0  0  0  0  0  0  0
    1.2435   -0.8683   29.4468 C   0  0  0  0  0  0  0  0  0  0  0  0
    0.4451   -1.7676   32.5508 S   0  0  0  0  0  0  0  0  0  0  0  0
   -0.3438   -0.8458   33.3405 O   0  0  0  0  0  0  0  0  0  0  0  0
    1.8566   -1.5574   32.3813 O   0  0  0  0  0  0  0  0  0  0  0  0
   -0.0510   -5.7602   32.2322 N   0  0  0  0  0  0  0  0  0  0  0  0
   -0.9588   -6.5115   32.9344 C   0  0  0  0  0  0  0  0  0  0  0  0
   -1.4141   -7.5001   32.1962 N   0  0  0  0  0  0  0  0  0  0  0  0
   -0.7327   -7.4767   31.0067 N   0  0  0  0  0  0  0  0  0  0  0  0
    0.1438   -6.4970   31.0716 C   0  0  0  0  0  0  0  0  0  0  0  0
    1.1524   -6.0498   30.1874 C   0  0  0  0  0  0  0  0  0  0  0  0
    4.7898   -5.2483   26.4077 N   0  0  0  0  0  0  0  0  0  0  0  0
    6.2090   -5.4752   26.1915 C   0  0  0  0  0  0  0  0  0  0  0  0
    6.8075   -6.4393   27.1912 C   0  0  0  0  0  0  0  0  0  0  0  0
    7.4358   -5.9605   28.3640 C   0  0  0  0  0  0  0  0  0  0  0  0
    7.9812   -6.8406   29.3042 C   0  0  0  0  0  0  0  0  0  0  0  0
    7.8880   -8.1892   29.0456 C   0  0  0  0  0  0  0  0  0  0  0  0
    7.2826   -8.6656   27.9075 C   0  0  0  0  0  0  0  0  0  0  0  0
    6.7284   -7.8235   26.9668 C   0  0  0  0  0  0  0  0  0  0  0  0
    7.2781  -10.0245   27.8529 O   0  0  0  0  0  0  0  0  0  0  0  0
    8.0080  -10.3461   29.0546 C   0  0  0  0  0  0  0  0  0  0  0  0
    8.3462   -9.1883   29.8465 O   0  0  0  0  0  0  0  0  0  0  0  0
    1.3825   -2.5836   25.6419 H   0  0  0  0  0  0  0  0  0  0  0  0
    1.2744   -3.3891   27.2110 H   0  0  0  0  0  0  0  0  0  0  0  0
    1.8279   -4.2907   25.7950 H   0  0  0  0  0  0  0  0  0  0  0  0
    3.8361   -2.7121   25.6583 H   0  0  0  0  0  0  0  0  0  0  0  0
    3.2972   -1.9857   27.1731 H   0  0  0  0  0  0  0  0  0  0  0  0
    3.7190   -4.0367   30.2320 H   0  0  0  0  0  0  0  0  0  0  0  0
    2.4807   -3.5590   32.0079 H   0  0  0  0  0  0  0  0  0  0  0  0
   -1.4550   -4.2884   34.1910 H   0  0  0  0  0  0  0  0  0  0  0  0
   -1.4796   -2.5850   34.3603 H   0  0  0  0  0  0  0  0  0  0  0  0
   -3.1859   -3.1129   32.6503 H   0  0  0  0  0  0  0  0  0  0  0  0
   -1.9871   -4.1003   31.7553 H   0  0  0  0  0  0  0  0  0  0  0  0
   -2.4672   -2.2867   30.4654 H   0  0  0  0  0  0  0  0  0  0  0  0
   -2.2772   -1.1439   31.7880 H   0  0  0  0  0  0  0  0  0  0  0  0
   -0.1046   -2.9080   30.5030 H   0  0  0  0  0  0  0  0  0  0  0  0
   -1.9020    0.2705   30.1076 H   0  0  0  0  0  0  0  0  0  0  0  0
   -1.0997    2.1026   28.7160 H   0  0  0  0  0  0  0  0  0  0  0  0
    1.1815    2.0756   27.7617 H   0  0  0  0  0  0  0  0  0  0  0  0
    2.6869    0.1707   28.2217 H   0  0  0  0  0  0  0  0  0  0  0  0
    1.9362   -1.6829   29.6474 H   0  0  0  0  0  0  0  0  0  0  0  0
   -1.2354   -6.3181   33.9587 H   0  0  0  0  0  0  0  0  0  0  0  0
    1.2858   -6.5541   29.2424 H   0  0  0  0  0  0  0  0  0  0  0  0
    4.3469   -6.1174   26.6827 H   0  0  0  0  0  0  0  0  0  0  0  0
    6.7660   -4.5320   26.1818 H   0  0  0  0  0  0  0  0  0  0  0  0
    6.3393   -5.8976   25.1877 H   0  0  0  0  0  0  0  0  0  0  0  0
    7.5046   -4.8875   28.5397 H   0  0  0  0  0  0  0  0  0  0  0  0
    8.4645   -6.4719   30.2014 H   0  0  0  0  0  0  0  0  0  0  0  0
    6.2534   -8.2263   26.0778 H   0  0  0  0  0  0  0  0  0  0  0  0
    8.9325  -10.8662   28.7776 H   0  0  0  0  0  0  0  0  0  0  0  0
    7.3955  -11.0193   29.6651 H   0  0  0  0  0  0  0  0  0  0  0  0
  1  2  1  0
  2  3  1  0
  3  4  2  0
  3  5  2  0
  5  6  1  0
  6  7  1  0
  7  8  1  0
  8  9  2  0
  9 10  1  0
 10 11  1  0
 11 12  1  0
 12 13  1  0
 13 14  1  0
 14 15  1  0
 15 16  2  0
 16 17  1  0
 17 18  2  0
 18 19  1  0
 19 20  2  0
 14 21  1  0
 21 22  2  0
 21 23  2  0
  9 24  1  0
 24 25  1  0
 25 26  2  0
 26 27  1  0
 27 28  2  0
 28 29  1  0
  3 30  1  0
 30 31  1  0
 31 32  1  0
 32 33  2  0
 33 34  1  0
 34 35  2  0
 35 36  1  0
 36 37  2  0
 36 38  1  0
 38 39  1  0
 39 40  1  0
 29  7  2  0
 37 32  1  0
 21 10  1  0
 28 24  1  0
 40 35  1  0
 20 15  1  0
  1 41  1  0
  1 42  1  0
  1 43  1  0
  2 44  1  0
  2 45  1  0
  6 46  1  0
  8 47  1  0
 11 48  1  0
 11 49  1  0
 12 50  1  0
 12 51  1  0
 13 52  1  0
 13 53  1  0
 14 54  1  0
 16 55  1  0
 17 56  1  0
 18 57  1  0
 19 58  1  0
 20 59  1  0
 25 60  1  0
 29 61  1  0
 30 62  1  0
 31 63  1  0
 31 64  1  0
 33 65  1  0
 34 66  1  0
 37 67  1  0
 39 68  1  0
 39 69  1  0
M  END
>  <Energy>  (711) 
47.925736787502849

>  <compound_id>  (711) 
4322

>  <target_id>  (711) 
1

>  <reference_id>  (711) 
186

>  <inspiration_ids>  (711) 
[150, 186]

>  <energy_score>  (711) 
-66.32378645706899

>  <distance_score>  (711) 
2.251759872369376

>  <path>  (711) 
/opt/xchem-fragalysis-2/maxwin/BulkDock/SCRATCH/505735/C4322-P186/C4322-P186.minimised.mol

>  <scratch_subdir>  (711) 
/opt/xchem-fragalysis-2/maxwin/BulkDock/SCRATCH/505735/C4322-P186

>  <fragmenstein_runtime>  (711) 
9.391113042831421

>  <fragmenstein_outcome>  (711) 
too moved

>  <fragmenstein_mode>  (711) 
expansion

>  <fragmenstein_error>  (711) 


$$$$
C4323-P150
     RDKit          3D

 61 66  0  0  0  0  0  0  0  0999 V2000
    1.4101   -2.8362   35.4016 N   0  0  0  0  0  0  0  0  0  0  0  0
    1.1422   -2.2358   34.0922 C   0  0  0  0  0  0  0  0  0  0  0  0
    0.2636   -3.1278   33.1736 C   0  0  0  0  0  0  0  0  0  0  0  0
    0.9482   -4.5560   32.8992 C   0  0  0  0  0  0  0  0  0  0  0  0
    2.4658   -4.5584   32.6763 C   0  0  0  0  0  0  0  0  0  0  0  0
    2.9493   -4.2520   31.2480 C   0  0  0  0  0  0  0  0  0  0  0  0
    2.1258   -4.8565   30.0192 C   0  0  0  0  0  0  0  0  0  0  0  0
    3.1036   -5.7029   29.0208 C   0  0  0  0  0  0  0  0  0  0  0  0
    4.0654   -4.6703   28.3423 C   0  0  0  0  0  0  0  0  0  0  0  0
    3.1349   -3.5508   28.2937 C   0  0  0  0  0  0  0  0  0  0  0  0
    3.1666   -2.3273   27.7329 N   0  0  0  0  0  0  0  0  0  0  0  0
    1.9302   -1.7777   27.9611 C   0  0  0  0  0  0  0  0  0  0  0  0
    1.1273   -2.7398   28.5557 C   0  0  0  0  0  0  0  0  0  0  0  0
    1.9880   -3.7119   29.0387 C   0  0  0  0  0  0  0  0  0  0  0  0
    0.9013   -5.6128   30.5662 C   0  0  0  0  0  0  0  0  0  0  0  0
    0.2502   -6.6453   30.0462 N   0  0  0  0  0  0  0  0  0  0  0  0
   -0.6314   -7.1574   30.9799 N   0  0  0  0  0  0  0  0  0  0  0  0
   -0.4983   -6.4494   32.0738 C   0  0  0  0  0  0  0  0  0  0  0  0
    0.3988   -5.4400   31.8621 N   0  0  0  0  0  0  0  0  0  0  0  0
   -1.1505   -3.2846   33.7761 C   0  0  0  0  0  0  0  0  0  0  0  0
   -1.9722   -1.9832   33.9311 C   0  0  0  0  0  0  0  0  0  0  0  0
   -2.2586   -1.2514   32.6077 C   0  0  0  0  0  0  0  0  0  0  0  0
   -0.9739   -0.8549   31.8957 C   0  0  0  0  0  0  0  0  0  0  0  0
   -1.0939   -0.2359   30.5088 C   0  0  0  0  0  0  0  0  0  0  0  0
   -1.6708   -0.9458   29.4504 C   0  0  0  0  0  0  0  0  0  0  0  0
   -1.5054   -0.5433   28.1253 C   0  0  0  0  0  0  0  0  0  0  0  0
   -0.9029    0.6639   27.8384 C   0  0  0  0  0  0  0  0  0  0  0  0
   -0.3429    1.4012   28.8675 C   0  0  0  0  0  0  0  0  0  0  0  0
   -0.4066    0.9391   30.1879 C   0  0  0  0  0  0  0  0  0  0  0  0
    0.0247   -2.3147   31.6139 S   0  0  0  0  0  0  0  0  0  0  0  0
    1.3210   -1.8312   31.2034 O   0  0  0  0  0  0  0  0  0  0  0  0
   -0.7876   -3.2430   30.8464 O   0  0  0  0  0  0  0  0  0  0  0  0
    2.0885   -2.2614   35.9070 H   0  0  0  0  0  0  0  0  0  0  0  0
    0.5699   -2.8322   35.9829 H   0  0  0  0  0  0  0  0  0  0  0  0
    2.1022   -2.0098   33.6166 H   0  0  0  0  0  0  0  0  0  0  0  0
    0.6845   -1.2558   34.2577 H   0  0  0  0  0  0  0  0  0  0  0  0
    0.7997   -5.1181   33.8346 H   0  0  0  0  0  0  0  0  0  0  0  0
    2.8182   -5.5551   32.9577 H   0  0  0  0  0  0  0  0  0  0  0  0
    2.9945   -3.9064   33.3764 H   0  0  0  0  0  0  0  0  0  0  0  0
    3.0456   -3.1673   31.1637 H   0  0  0  0  0  0  0  0  0  0  0  0
    4.0075   -4.5380   31.1805 H   0  0  0  0  0  0  0  0  0  0  0  0
    3.7156   -6.5034   29.4016 H   0  0  0  0  0  0  0  0  0  0  0  0
    2.4986   -6.1767   28.2442 H   0  0  0  0  0  0  0  0  0  0  0  0
    4.3854   -5.0167   27.3565 H   0  0  0  0  0  0  0  0  0  0  0  0
    4.9353   -4.4584   28.9698 H   0  0  0  0  0  0  0  0  0  0  0  0
    3.9283   -1.8969   27.2239 H   0  0  0  0  0  0  0  0  0  0  0  0
    1.6879   -0.7899   27.5960 H   0  0  0  0  0  0  0  0  0  0  0  0
    0.0733   -2.6477   28.7328 H   0  0  0  0  0  0  0  0  0  0  0  0
   -1.0033   -6.6240   33.0141 H   0  0  0  0  0  0  0  0  0  0  0  0
   -1.0833   -3.7771   34.7527 H   0  0  0  0  0  0  0  0  0  0  0  0
   -1.7199   -3.9500   33.1224 H   0  0  0  0  0  0  0  0  0  0  0  0
   -2.9350   -2.2332   34.3923 H   0  0  0  0  0  0  0  0  0  0  0  0
   -1.4763   -1.3015   34.6303 H   0  0  0  0  0  0  0  0  0  0  0  0
   -2.8576   -0.3555   32.8108 H   0  0  0  0  0  0  0  0  0  0  0  0
   -2.8794   -1.8991   31.9763 H   0  0  0  0  0  0  0  0  0  0  0  0
   -0.3886   -0.1872   32.5378 H   0  0  0  0  0  0  0  0  0  0  0  0
   -2.1900   -1.8898   29.6041 H   0  0  0  0  0  0  0  0  0  0  0  0
   -1.8697   -1.1770   27.3196 H   0  0  0  0  0  0  0  0  0  0  0  0
   -0.8430    1.0178   26.8183 H   0  0  0  0  0  0  0  0  0  0  0  0
    0.1770    2.3294   28.6423 H   0  0  0  0  0  0  0  0  0  0  0  0
    0.1226    1.4996   30.9553 H   0  0  0  0  0  0  0  0  0  0  0  0
  1  2  1  0
  2  3  1  0
  3  4  1  0
  4  5  1  0
  5  6  1  0
  6  7  1  0
  7  8  1  0
  8  9  1  0
  9 10  1  0
 10 11  1  0
 11 12  1  0
 12 13  2  0
 13 14  1  0
  7 15  1  0
 15 16  2  0
 16 17  1  0
 17 18  2  0
 18 19  1  0
  3 20  1  0
 20 21  1  0
 21 22  1  0
 22 23  1  0
 23 24  1  0
 24 25  2  0
 25 26  1  0
 26 27  2  0
 27 28  1  0
 28 29  2  0
 23 30  1  0
 30 31  2  0
 30 32  2  0
 30  3  1  0
 19  4  1  0
 29 24  1  0
 14  7  1  0
 19 15  1  0
 14 10  2  0
  1 33  1  0
  1 34  1  0
  2 35  1  0
  2 36  1  0
  4 37  1  0
  5 38  1  0
  5 39  1  0
  6 40  1  0
  6 41  1  0
  8 42  1  0
  8 43  1  0
  9 44  1  0
  9 45  1  0
 11 46  1  0
 12 47  1  0
 13 48  1  0
 18 49  1  0
 20 50  1  0
 20 51  1  0
 21 52  1  0
 21 53  1  0
 22 54  1  0
 22 55  1  0
 23 56  1  0
 25 57  1  0
 26 58  1  0
 27 59  1  0
 28 60  1  0
 29 61  1  0
M  END
>  <Energy>  (712) 
140.85571544382603

>  <compound_id>  (712) 
4323

>  <target_id>  (712) 
1

>  <reference_id>  (712) 
150

>  <inspiration_ids>  (712) 
[150, 188]

>  <energy_score>  (712) 
-36.88948888698292

>  <distance_score>  (712) 
1.8875183260293744

>  <path>  (712) 
/opt/xchem-fragalysis-2/maxwin/BulkDock/SCRATCH/505735/C4323-P150/C4323-P150.minimised.mol

>  <scratch_subdir>  (712) 
/opt/xchem-fragalysis-2/maxwin/BulkDock/SCRATCH/505735/C4323-P150

>  <fragmenstein_runtime>  (712) 
7.854912042617798

>  <fragmenstein_outcome>  (712) 
too moved

>  <fragmenstein_mode>  (712) 
expansion

>  <fragmenstein_error>  (712) 


$$$$
C4323-P188
     RDKit          3D

 61 66  0  0  0  0  0  0  0  0999 V2000
    1.6196   -3.0677   35.1269 N   0  0  0  0  0  0  0  0  0  0  0  0
    1.3099   -2.5296   33.7957 C   0  0  0  0  0  0  0  0  0  0  0  0
    0.2295   -3.3618   33.0368 C   0  0  0  0  0  0  0  0  0  0  0  0
    0.7735   -4.8673   32.7842 C   0  0  0  0  0  0  0  0  0  0  0  0
    2.2936   -5.0254   32.5766 C   0  0  0  0  0  0  0  0  0  0  0  0
    2.7735   -4.5304   31.2088 C   0  0  0  0  0  0  0  0  0  0  0  0
    1.9993   -5.0824   29.9444 C   0  0  0  0  0  0  0  0  0  0  0  0
    3.0184   -5.8820   28.9854 C   0  0  0  0  0  0  0  0  0  0  0  0
    3.9713   -4.8297   28.3190 C   0  0  0  0  0  0  0  0  0  0  0  0
    3.0293   -3.7242   28.2699 C   0  0  0  0  0  0  0  0  0  0  0  0
    3.0619   -2.4882   27.7348 N   0  0  0  0  0  0  0  0  0  0  0  0
    1.8125   -1.9617   27.9350 C   0  0  0  0  0  0  0  0  0  0  0  0
    1.0091   -2.9501   28.4853 C   0  0  0  0  0  0  0  0  0  0  0  0
    1.8692   -3.9167   28.9853 C   0  0  0  0  0  0  0  0  0  0  0  0
    0.7782   -5.8767   30.4391 C   0  0  0  0  0  0  0  0  0  0  0  0
    0.2090   -6.9513   29.9132 N   0  0  0  0  0  0  0  0  0  0  0  0
   -0.7340   -7.4489   30.7947 N   0  0  0  0  0  0  0  0  0  0  0  0
   -0.6953   -6.7121   31.8790 C   0  0  0  0  0  0  0  0  0  0  0  0
    0.2101   -5.7040   31.7138 N   0  0  0  0  0  0  0  0  0  0  0  0
   -1.0954   -3.3036   33.8158 C   0  0  0  0  0  0  0  0  0  0  0  0
   -1.6035   -1.8684   34.1452 C   0  0  0  0  0  0  0  0  0  0  0  0
   -1.4015   -0.7711   33.0686 C   0  0  0  0  0  0  0  0  0  0  0  0
   -1.4473   -1.3515   31.6733 C   0  0  0  0  0  0  0  0  0  0  0  0
   -1.3307   -0.4812   30.4300 C   0  0  0  0  0  0  0  0  0  0  0  0
   -1.7389   -1.0375   29.2047 C   0  0  0  0  0  0  0  0  0  0  0  0
   -1.5840   -0.3805   27.9893 C   0  0  0  0  0  0  0  0  0  0  0  0
   -1.0131    0.8727   27.9612 C   0  0  0  0  0  0  0  0  0  0  0  0
   -0.5490    1.4277   29.1469 C   0  0  0  0  0  0  0  0  0  0  0  0
   -0.6927    0.7535   30.3720 C   0  0  0  0  0  0  0  0  0  0  0  0
   -0.1720   -2.5891   31.4602 S   0  0  0  0  0  0  0  0  0  0  0  0
    1.0404   -1.9171   31.0502 O   0  0  0  0  0  0  0  0  0  0  0  0
   -0.8627   -3.5968   30.6769 O   0  0  0  0  0  0  0  0  0  0  0  0
    2.4196   -2.5609   35.5145 H   0  0  0  0  0  0  0  0  0  0  0  0
    0.8526   -2.8875   35.7767 H   0  0  0  0  0  0  0  0  0  0  0  0
    2.2411   -2.4765   33.2246 H   0  0  0  0  0  0  0  0  0  0  0  0
    1.0241   -1.4853   33.9240 H   0  0  0  0  0  0  0  0  0  0  0  0
    0.5508   -5.4149   33.7122 H   0  0  0  0  0  0  0  0  0  0  0  0
    2.5439   -6.0897   32.6677 H   0  0  0  0  0  0  0  0  0  0  0  0
    2.8797   -4.5513   33.3677 H   0  0  0  0  0  0  0  0  0  0  0  0
    2.7525   -3.4388   31.2283 H   0  0  0  0  0  0  0  0  0  0  0  0
    3.8458   -4.7270   31.1253 H   0  0  0  0  0  0  0  0  0  0  0  0
    3.6667   -6.5992   29.4461 H   0  0  0  0  0  0  0  0  0  0  0  0
    2.4539   -6.4072   28.2031 H   0  0  0  0  0  0  0  0  0  0  0  0
    4.8336   -4.6089   28.9545 H   0  0  0  0  0  0  0  0  0  0  0  0
    4.3060   -5.1687   27.3356 H   0  0  0  0  0  0  0  0  0  0  0  0
    3.8300   -2.0359   27.2548 H   0  0  0  0  0  0  0  0  0  0  0  0
    1.5591   -0.9721   27.5794 H   0  0  0  0  0  0  0  0  0  0  0  0
   -0.0530   -2.8655   28.6170 H   0  0  0  0  0  0  0  0  0  0  0  0
   -1.2643   -6.8773   32.7834 H   0  0  0  0  0  0  0  0  0  0  0  0
   -1.0308   -3.8775   34.7476 H   0  0  0  0  0  0  0  0  0  0  0  0
   -1.8503   -3.7990   33.1998 H   0  0  0  0  0  0  0  0  0  0  0  0
   -2.6764   -1.9404   34.3636 H   0  0  0  0  0  0  0  0  0  0  0  0
   -1.1399   -1.5234   35.0775 H   0  0  0  0  0  0  0  0  0  0  0  0
   -0.4581   -0.2429   33.2365 H   0  0  0  0  0  0  0  0  0  0  0  0
   -2.1835   -0.0110   33.1886 H   0  0  0  0  0  0  0  0  0  0  0  0
   -2.4072   -1.8826   31.5957 H   0  0  0  0  0  0  0  0  0  0  0  0
   -2.1399   -2.0484   29.1500 H   0  0  0  0  0  0  0  0  0  0  0  0
   -1.9164   -0.8556   27.0711 H   0  0  0  0  0  0  0  0  0  0  0  0
   -0.9081    1.4071   27.0229 H   0  0  0  0  0  0  0  0  0  0  0  0
   -0.0622    2.4003   29.1209 H   0  0  0  0  0  0  0  0  0  0  0  0
   -0.2673    1.2052   31.2631 H   0  0  0  0  0  0  0  0  0  0  0  0
  1  2  1  0
  2  3  1  0
  3  4  1  0
  4  5  1  0
  5  6  1  0
  6  7  1  0
  7  8  1  0
  8  9  1  0
  9 10  1  0
 10 11  1  0
 11 12  1  0
 12 13  2  0
 13 14  1  0
  7 15  1  0
 15 16  2  0
 16 17  1  0
 17 18  2  0
 18 19  1  0
  3 20  1  0
 20 21  1  0
 21 22  1  0
 22 23  1  0
 23 24  1  0
 24 25  2  0
 25 26  1  0
 26 27  2  0
 27 28  1  0
 28 29  2  0
 23 30  1  0
 30 31  2  0
 30 32  2  0
 30  3  1  0
 19  4  1  0
 29 24  1  0
 14  7  1  0
 19 15  1  0
 14 10  2  0
  1 33  1  0
  1 34  1  0
  2 35  1  0
  2 36  1  0
  4 37  1  0
  5 38  1  0
  5 39  1  0
  6 40  1  0
  6 41  1  0
  8 42  1  0
  8 43  1  0
  9 44  1  0
  9 45  1  0
 11 46  1  0
 12 47  1  0
 13 48  1  0
 18 49  1  0
 20 50  1  0
 20 51  1  0
 21 52  1  0
 21 53  1  0
 22 54  1  0
 22 55  1  0
 23 56  1  0
 25 57  1  0
 26 58  1  0
 27 59  1  0
 28 60  1  0
 29 61  1  0
M  END
>  <Energy>  (713) 
148.21718311871624

>  <compound_id>  (713) 
4323

>  <target_id>  (713) 
1

>  <reference_id>  (713) 
188

>  <inspiration_ids>  (713) 
[150, 188]

>  <energy_score>  (713) 
-29.52802121209328

>  <distance_score>  (713) 
1.827761278564653

>  <path>  (713) 
/opt/xchem-fragalysis-2/maxwin/BulkDock/SCRATCH/505735/C4323-P188/C4323-P188.minimised.mol

>  <scratch_subdir>  (713) 
/opt/xchem-fragalysis-2/maxwin/BulkDock/SCRATCH/505735/C4323-P188

>  <fragmenstein_runtime>  (713) 
8.01149296760559

>  <fragmenstein_outcome>  (713) 
too moved

>  <fragmenstein_mode>  (713) 
expansion

>  <fragmenstein_error>  (713) 


$$$$
C4324-P150
     RDKit          3D

 55 59  0  0  0  0  0  0  0  0999 V2000
   -2.0291   -0.5492   31.4206 C   0  0  0  0  0  0  0  0  0  0  0  0
   -1.3055   -1.7113   32.0676 C   0  0  0  0  0  0  0  0  0  0  0  0
   -2.2319   -2.8197   32.4868 C   0  0  0  0  0  0  0  0  0  0  0  0
   -1.1987   -3.7619   33.0556 C   0  0  0  0  0  0  0  0  0  0  0  0
   -0.2961   -2.9963   34.0615 C   0  0  0  0  0  0  0  0  0  0  0  0
   -0.7283   -3.2328   35.6213 C   0  0  0  0  0  0  0  0  0  0  0  0
    0.1105   -4.3466   36.4809 C   0  0  0  0  0  0  0  0  0  0  0  0
   -0.3766   -4.8483   37.8696 C   0  0  0  0  0  0  0  0  0  0  0  0
    0.3415   -5.8451   38.5845 C   0  0  0  0  0  0  0  0  0  0  0  0
   -0.0553   -6.3163   39.8460 C   0  0  0  0  0  0  0  0  0  0  0  0
   -1.1625   -5.7632   40.4655 C   0  0  0  0  0  0  0  0  0  0  0  0
   -1.8593   -4.7464   39.8156 C   0  0  0  0  0  0  0  0  0  0  0  0
   -1.4772   -4.2976   38.5343 C   0  0  0  0  0  0  0  0  0  0  0  0
    0.3728   -5.8107   35.4153 S   0  0  0  0  0  0  0  0  0  0  0  0
    1.4059   -6.6962   35.9151 O   0  0  0  0  0  0  0  0  0  0  0  0
   -0.9453   -6.3163   35.1170 O   0  0  0  0  0  0  0  0  0  0  0  0
    1.0882   -5.1183   34.0252 N   0  0  0  0  0  0  0  0  0  0  0  0
    0.9619   -5.7983   32.7362 C   0  0  0  0  0  0  0  0  0  0  0  0
    1.6938   -5.1544   31.7948 C   0  0  0  0  0  0  0  0  0  0  0  0
    1.2201   -5.0811   30.4317 C   0  0  0  0  0  0  0  0  0  0  0  0
    0.1135   -5.7435   30.0815 C   0  0  0  0  0  0  0  0  0  0  0  0
   -0.4434   -6.7057   30.9476 C   0  0  0  0  0  0  0  0  0  0  0  0
   -1.3722   -7.6044   30.7368 N   0  0  0  0  0  0  0  0  0  0  0  0
   -1.5938   -8.2403   31.9165 N   0  0  0  0  0  0  0  0  0  0  0  0
   -0.7983   -7.7078   32.8200 C   0  0  0  0  0  0  0  0  0  0  0  0
   -0.0347   -6.7056   32.2802 N   0  0  0  0  0  0  0  0  0  0  0  0
    1.1188   -3.5855   33.9992 C   0  0  0  0  0  0  0  0  0  0  0  0
   -0.5057   -1.4891   33.3942 C   0  0  0  0  0  0  0  0  0  0  0  0
    0.7138   -0.6581   32.9980 C   0  0  0  0  0  0  0  0  0  0  0  0
   -2.7689   -0.1169   32.1016 H   0  0  0  0  0  0  0  0  0  0  0  0
   -1.3329    0.2425   31.1293 H   0  0  0  0  0  0  0  0  0  0  0  0
   -2.5468   -0.8827   30.5191 H   0  0  0  0  0  0  0  0  0  0  0  0
   -0.6137   -2.0882   31.2980 H   0  0  0  0  0  0  0  0  0  0  0  0
   -2.7609   -3.2466   31.6341 H   0  0  0  0  0  0  0  0  0  0  0  0
   -2.9620   -2.4987   33.2372 H   0  0  0  0  0  0  0  0  0  0  0  0
   -1.5816   -4.6899   33.4387 H   0  0  0  0  0  0  0  0  0  0  0  0
   -0.6205   -4.0374   32.1783 H   0  0  0  0  0  0  0  0  0  0  0  0
   -0.6021   -2.2785   36.1485 H   0  0  0  0  0  0  0  0  0  0  0  0
   -1.7937   -3.4673   35.6665 H   0  0  0  0  0  0  0  0  0  0  0  0
    1.1073   -3.9309   36.6746 H   0  0  0  0  0  0  0  0  0  0  0  0
    1.2519   -6.2816   38.1788 H   0  0  0  0  0  0  0  0  0  0  0  0
    0.5141   -7.1014   40.3359 H   0  0  0  0  0  0  0  0  0  0  0  0
   -1.4855   -6.1117   41.4419 H   0  0  0  0  0  0  0  0  0  0  0  0
   -2.7308   -4.3075   40.2985 H   0  0  0  0  0  0  0  0  0  0  0  0
   -2.0608   -3.5021   38.0776 H   0  0  0  0  0  0  0  0  0  0  0  0
    2.5228   -4.4911   32.0188 H   0  0  0  0  0  0  0  0  0  0  0  0
    1.6515   -4.3353   29.7695 H   0  0  0  0  0  0  0  0  0  0  0  0
   -0.4019   -5.5217   29.1619 H   0  0  0  0  0  0  0  0  0  0  0  0
   -0.7283   -8.0663   33.8347 H   0  0  0  0  0  0  0  0  0  0  0  0
    1.7599   -3.2242   34.8114 H   0  0  0  0  0  0  0  0  0  0  0  0
    1.6169   -3.1887   33.1164 H   0  0  0  0  0  0  0  0  0  0  0  0
   -1.1184   -0.9114   34.0988 H   0  0  0  0  0  0  0  0  0  0  0  0
    1.3780   -0.5409   33.8605 H   0  0  0  0  0  0  0  0  0  0  0  0
    1.2907   -1.1226   32.1920 H   0  0  0  0  0  0  0  0  0  0  0  0
    0.4229    0.3457   32.6725 H   0  0  0  0  0  0  0  0  0  0  0  0
  1  2  1  0
  2  3  1  0
  3  4  1  0
  4  5  1  0
  5  6  1  0
  6  7  1  0
  7  8  1  0
  8  9  2  0
  9 10  1  0
 10 11  2  0
 11 12  1  0
 12 13  2  0
  7 14  1  0
 14 15  2  0
 14 16  2  0
 14 17  1  0
 17 18  1  0
 18 19  2  0
 19 20  1  0
 20 21  2  0
 21 22  1  0
 22 23  2  0
 23 24  1  0
 24 25  2  0
 25 26  1  0
 17 27  1  0
  5 28  1  0
 28 29  1  0
 28  2  1  0
 27  5  1  0
 13  8  1  0
 26 18  1  0
 26 22  1  0
  1 30  1  0
  1 31  1  0
  1 32  1  0
  2 33  1  0
  3 34  1  0
  3 35  1  0
  4 36  1  0
  4 37  1  0
  6 38  1  0
  6 39  1  0
  7 40  1  0
  9 41  1  0
 10 42  1  0
 11 43  1  0
 12 44  1  0
 13 45  1  0
 19 46  1  0
 20 47  1  0
 21 48  1  0
 25 49  1  0
 27 50  1  0
 27 51  1  0
 28 52  1  0
 29 53  1  0
 29 54  1  0
 29 55  1  0
M  END
>  <Energy>  (714) 
161.19966243817373

>  <compound_id>  (714) 
4324

>  <target_id>  (714) 
1

>  <reference_id>  (714) 
150

>  <inspiration_ids>  (714) 
[150, 189]

>  <energy_score>  (714) 
0.8546675060601956

>  <distance_score>  (714) 
2.4609033804557043

>  <path>  (714) 
/opt/xchem-fragalysis-2/maxwin/BulkDock/SCRATCH/505735/C4324-P150/C4324-P150.minimised.mol

>  <scratch_subdir>  (714) 
/opt/xchem-fragalysis-2/maxwin/BulkDock/SCRATCH/505735/C4324-P150

>  <fragmenstein_runtime>  (714) 
5.531478643417358

>  <fragmenstein_outcome>  (714) 
too moved

>  <fragmenstein_mode>  (714) 
expansion

>  <fragmenstein_error>  (714) 


$$$$
C4324-P189
     RDKit          3D

 55 59  0  0  0  0  0  0  0  0999 V2000
   -1.1515   -1.6836   30.6903 C   0  0  0  0  0  0  0  0  0  0  0  0
   -0.4734   -2.1776   31.9786 C   0  0  0  0  0  0  0  0  0  0  0  0
    0.2752   -1.0985   32.7803 C   0  0  0  0  0  0  0  0  0  0  0  0
    0.1411   -1.4566   34.2987 C   0  0  0  0  0  0  0  0  0  0  0  0
   -0.4034   -2.9029   34.3788 C   0  0  0  0  0  0  0  0  0  0  0  0
   -0.9784   -3.3935   35.8189 C   0  0  0  0  0  0  0  0  0  0  0  0
   -0.1435   -4.5627   36.5898 C   0  0  0  0  0  0  0  0  0  0  0  0
   -0.5106   -5.0903   37.9963 C   0  0  0  0  0  0  0  0  0  0  0  0
    0.1631   -6.1987   38.5767 C   0  0  0  0  0  0  0  0  0  0  0  0
   -0.0739   -6.6308   39.8914 C   0  0  0  0  0  0  0  0  0  0  0  0
   -0.9701   -5.9402   40.6898 C   0  0  0  0  0  0  0  0  0  0  0  0
   -1.6223   -4.8283   40.1625 C   0  0  0  0  0  0  0  0  0  0  0  0
   -1.3994   -4.4094   38.8346 C   0  0  0  0  0  0  0  0  0  0  0  0
    0.0586   -6.0026   35.4448 S   0  0  0  0  0  0  0  0  0  0  0  0
    1.3013   -6.7032   35.7100 O   0  0  0  0  0  0  0  0  0  0  0  0
   -1.1938   -6.7187   35.3410 O   0  0  0  0  0  0  0  0  0  0  0  0
    0.3361   -5.1930   33.9915 N   0  0  0  0  0  0  0  0  0  0  0  0
    0.6809   -5.9195   32.8094 C   0  0  0  0  0  0  0  0  0  0  0  0
    1.7933   -5.4535   32.2017 C   0  0  0  0  0  0  0  0  0  0  0  0
    1.9225   -5.5598   30.7753 C   0  0  0  0  0  0  0  0  0  0  0  0
    1.0266   -6.2509   30.0636 C   0  0  0  0  0  0  0  0  0  0  0  0
   -0.0334   -6.9381   30.7097 C   0  0  0  0  0  0  0  0  0  0  0  0
   -0.9708   -7.7419   30.2606 N   0  0  0  0  0  0  0  0  0  0  0  0
   -1.7363   -8.1231   31.3294 N   0  0  0  0  0  0  0  0  0  0  0  0
   -1.2581   -7.5278   32.4006 C   0  0  0  0  0  0  0  0  0  0  0  0
   -0.1829   -6.7501   32.0806 N   0  0  0  0  0  0  0  0  0  0  0  0
    0.8104   -3.8064   34.1332 C   0  0  0  0  0  0  0  0  0  0  0  0
   -1.3729   -2.7987   33.0757 C   0  0  0  0  0  0  0  0  0  0  0  0
   -2.6090   -1.8869   33.1980 C   0  0  0  0  0  0  0  0  0  0  0  0
   -0.3924   -1.3752   29.9636 H   0  0  0  0  0  0  0  0  0  0  0  0
   -1.7488   -2.4828   30.2397 H   0  0  0  0  0  0  0  0  0  0  0  0
   -1.7995   -0.8201   30.8683 H   0  0  0  0  0  0  0  0  0  0  0  0
    0.2424   -2.9346   31.6427 H   0  0  0  0  0  0  0  0  0  0  0  0
   -0.1295   -0.0956   32.6034 H   0  0  0  0  0  0  0  0  0  0  0  0
    1.3308   -1.0751   32.4865 H   0  0  0  0  0  0  0  0  0  0  0  0
    1.1008   -1.3330   34.8132 H   0  0  0  0  0  0  0  0  0  0  0  0
   -0.5597   -0.7597   34.7743 H   0  0  0  0  0  0  0  0  0  0  0  0
   -1.0195   -2.5206   36.4812 H   0  0  0  0  0  0  0  0  0  0  0  0
   -2.0042   -3.7370   35.7005 H   0  0  0  0  0  0  0  0  0  0  0  0
    0.8673   -4.1630   36.7426 H   0  0  0  0  0  0  0  0  0  0  0  0
    0.9186   -6.7585   38.0297 H   0  0  0  0  0  0  0  0  0  0  0  0
    0.4522   -7.5001   40.2803 H   0  0  0  0  0  0  0  0  0  0  0  0
   -1.1665   -6.2627   41.7080 H   0  0  0  0  0  0  0  0  0  0  0  0
   -2.3390   -4.2878   40.7775 H   0  0  0  0  0  0  0  0  0  0  0  0
   -1.9412   -3.5350   38.4832 H   0  0  0  0  0  0  0  0  0  0  0  0
    2.5612   -4.8584   32.6838 H   0  0  0  0  0  0  0  0  0  0  0  0
    2.7472   -5.0477   30.2877 H   0  0  0  0  0  0  0  0  0  0  0  0
    1.1805   -6.3190   29.0037 H   0  0  0  0  0  0  0  0  0  0  0  0
   -1.6428   -7.6687   33.3942 H   0  0  0  0  0  0  0  0  0  0  0  0
    1.5757   -3.7290   34.9143 H   0  0  0  0  0  0  0  0  0  0  0  0
    1.3513   -3.4306   33.2674 H   0  0  0  0  0  0  0  0  0  0  0  0
   -1.6956   -3.8010   32.7785 H   0  0  0  0  0  0  0  0  0  0  0  0
   -2.3701   -0.8223   33.2754 H   0  0  0  0  0  0  0  0  0  0  0  0
   -3.2794   -2.0242   32.3427 H   0  0  0  0  0  0  0  0  0  0  0  0
   -3.1795   -2.1527   34.0935 H   0  0  0  0  0  0  0  0  0  0  0  0
  1  2  1  0
  2  3  1  0
  3  4  1  0
  4  5  1  0
  5  6  1  0
  6  7  1  0
  7  8  1  0
  8  9  2  0
  9 10  1  0
 10 11  2  0
 11 12  1  0
 12 13  2  0
  7 14  1  0
 14 15  2  0
 14 16  2  0
 14 17  1  0
 17 18  1  0
 18 19  2  0
 19 20  1  0
 20 21  2  0
 21 22  1  0
 22 23  2  0
 23 24  1  0
 24 25  2  0
 25 26  1  0
 17 27  1  0
  5 28  1  0
 28 29  1  0
 28  2  1  0
 27  5  1  0
 13  8  1  0
 26 18  1  0
 26 22  1  0
  1 30  1  0
  1 31  1  0
  1 32  1  0
  2 33  1  0
  3 34  1  0
  3 35  1  0
  4 36  1  0
  4 37  1  0
  6 38  1  0
  6 39  1  0
  7 40  1  0
  9 41  1  0
 10 42  1  0
 11 43  1  0
 12 44  1  0
 13 45  1  0
 19 46  1  0
 20 47  1  0
 21 48  1  0
 25 49  1  0
 27 50  1  0
 27 51  1  0
 28 52  1  0
 29 53  1  0
 29 54  1  0
 29 55  1  0
M  END
>  <Energy>  (715) 
140.21043712909625

>  <compound_id>  (715) 
4324

>  <target_id>  (715) 
1

>  <reference_id>  (715) 
189

>  <inspiration_ids>  (715) 
[150, 189]

>  <energy_score>  (715) 
-20.13455780301649

>  <distance_score>  (715) 
2.535889539140037

>  <path>  (715) 
/opt/xchem-fragalysis-2/maxwin/BulkDock/SCRATCH/505735/C4324-P189/C4324-P189.minimised.mol

>  <scratch_subdir>  (715) 
/opt/xchem-fragalysis-2/maxwin/BulkDock/SCRATCH/505735/C4324-P189

>  <fragmenstein_runtime>  (715) 
5.392746686935425

>  <fragmenstein_outcome>  (715) 
too moved

>  <fragmenstein_mode>  (715) 
expansion

>  <fragmenstein_error>  (715) 


$$$$
C4328-P150
     RDKit          3D

 66 70  0  0  0  0  0  0  0  0999 V2000
   -1.3924    0.6125   27.2745 C   0  0  0  0  0  0  0  0  0  0  0  0
   -0.3568    0.1387   28.6204 S   0  0  0  0  0  0  0  0  0  0  0  0
    0.8605   -0.4616   28.1237 O   0  0  0  0  0  0  0  0  0  0  0  0
   -0.3245    1.2862   29.4983 O   0  0  0  0  0  0  0  0  0  0  0  0
   -1.2368   -1.1213   29.3363 N   0  0  0  0  0  0  0  0  0  0  0  0
   -1.2233   -1.3567   30.8298 C   0  0  0  0  0  0  0  0  0  0  0  0
   -0.2979   -0.4222   31.6055 C   0  0  0  0  0  0  0  0  0  0  0  0
    0.2933   -1.0832   32.8269 C   0  0  0  0  0  0  0  0  0  0  0  0
    1.1624   -2.2497   32.3665 C   0  0  0  0  0  0  0  0  0  0  0  0
    0.3640   -3.4027   31.7059 C   0  0  0  0  0  0  0  0  0  0  0  0
    1.0556   -3.7766   30.3674 C   0  0  0  0  0  0  0  0  0  0  0  0
    0.4504   -5.0141   29.7005 C   0  0  0  0  0  0  0  0  0  0  0  0
   -0.1691   -6.0367   30.5972 C   0  0  0  0  0  0  0  0  0  0  0  0
   -0.8328   -7.1195   30.2514 N   0  0  0  0  0  0  0  0  0  0  0  0
   -1.2333   -7.7502   31.3996 N   0  0  0  0  0  0  0  0  0  0  0  0
   -0.7482   -7.0841   32.4236 C   0  0  0  0  0  0  0  0  0  0  0  0
   -0.8106   -7.4712   33.7110 N   0  0  0  0  0  0  0  0  0  0  0  0
   -0.1542   -5.9347   31.9682 N   0  0  0  0  0  0  0  0  0  0  0  0
    0.5607   -4.7998   32.5663 C   0  0  0  0  0  0  0  0  0  0  0  0
    0.7318   -4.6521   34.0596 N   0  0  0  0  0  0  0  0  0  0  0  0
   -0.5102   -4.6418   34.8457 C   0  0  0  0  0  0  0  0  0  0  0  0
   -0.3628   -5.1804   36.2700 C   0  0  0  0  0  0  0  0  0  0  0  0
    0.8109   -4.5258   36.9855 C   0  0  0  0  0  0  0  0  0  0  0  0
    2.1771   -4.8993   36.3968 C   0  0  0  0  0  0  0  0  0  0  0  0
    2.9760   -5.9258   37.1826 C   0  0  0  0  0  0  0  0  0  0  0  0
    4.3738   -5.7945   37.2559 C   0  0  0  0  0  0  0  0  0  0  0  0
    5.1451   -6.7261   37.9530 C   0  0  0  0  0  0  0  0  0  0  0  0
    4.5337   -7.8039   38.5866 C   0  0  0  0  0  0  0  0  0  0  0  0
    3.1514   -7.9526   38.5196 C   0  0  0  0  0  0  0  0  0  0  0  0
    2.3773   -7.0247   37.8195 C   0  0  0  0  0  0  0  0  0  0  0  0
    2.0738   -5.4948   34.6831 S   0  0  0  0  0  0  0  0  0  0  0  0
    3.2316   -5.0205   33.9531 O   0  0  0  0  0  0  0  0  0  0  0  0
    1.7172   -6.9017   34.6328 O   0  0  0  0  0  0  0  0  0  0  0  0
   -1.0848   -2.8794   31.3157 C   0  0  0  0  0  0  0  0  0  0  0  0
   -0.8383    1.3327   26.6723 H   0  0  0  0  0  0  0  0  0  0  0  0
   -1.6509   -0.2718   26.7024 H   0  0  0  0  0  0  0  0  0  0  0  0
   -2.2780    1.1126   27.6636 H   0  0  0  0  0  0  0  0  0  0  0  0
   -1.1729   -1.9737   28.7683 H   0  0  0  0  0  0  0  0  0  0  0  0
   -2.2489   -1.0828   31.1210 H   0  0  0  0  0  0  0  0  0  0  0  0
    0.5734   -0.1165   31.0219 H   0  0  0  0  0  0  0  0  0  0  0  0
   -0.8379    0.4850   31.9008 H   0  0  0  0  0  0  0  0  0  0  0  0
   -0.4805   -1.4106   33.5300 H   0  0  0  0  0  0  0  0  0  0  0  0
    0.9200   -0.3597   33.3620 H   0  0  0  0  0  0  0  0  0  0  0  0
    1.7431   -2.6001   33.2249 H   0  0  0  0  0  0  0  0  0  0  0  0
    1.9201   -1.8635   31.6708 H   0  0  0  0  0  0  0  0  0  0  0  0
    2.1252   -3.9641   30.5429 H   0  0  0  0  0  0  0  0  0  0  0  0
    1.0341   -2.9389   29.6597 H   0  0  0  0  0  0  0  0  0  0  0  0
    1.2642   -5.4901   29.1476 H   0  0  0  0  0  0  0  0  0  0  0  0
   -0.3145   -4.6719   28.9967 H   0  0  0  0  0  0  0  0  0  0  0  0
    0.0780   -7.4173   34.2209 H   0  0  0  0  0  0  0  0  0  0  0  0
   -1.1737   -8.4211   33.8408 H   0  0  0  0  0  0  0  0  0  0  0  0
    1.5827   -5.0843   32.2690 H   0  0  0  0  0  0  0  0  0  0  0  0
   -0.8586   -3.6034   34.8921 H   0  0  0  0  0  0  0  0  0  0  0  0
   -1.2629   -5.2141   34.3284 H   0  0  0  0  0  0  0  0  0  0  0  0
   -0.2619   -6.2700   36.2723 H   0  0  0  0  0  0  0  0  0  0  0  0
   -1.2864   -4.9611   36.8191 H   0  0  0  0  0  0  0  0  0  0  0  0
    0.6876   -3.4368   36.9064 H   0  0  0  0  0  0  0  0  0  0  0  0
    0.7676   -4.7424   38.0594 H   0  0  0  0  0  0  0  0  0  0  0  0
    2.7641   -3.9722   36.3469 H   0  0  0  0  0  0  0  0  0  0  0  0
    4.8809   -4.9664   36.7619 H   0  0  0  0  0  0  0  0  0  0  0  0
    6.2257   -6.6119   37.9972 H   0  0  0  0  0  0  0  0  0  0  0  0
    5.1360   -8.5297   39.1269 H   0  0  0  0  0  0  0  0  0  0  0  0
    2.6716   -8.7966   39.0077 H   0  0  0  0  0  0  0  0  0  0  0  0
    1.3032   -7.1893   37.7754 H   0  0  0  0  0  0  0  0  0  0  0  0
   -1.5626   -3.5220   30.5728 H   0  0  0  0  0  0  0  0  0  0  0  0
   -1.6989   -2.9783   32.2221 H   0  0  0  0  0  0  0  0  0  0  0  0
  1  2  1  0
  2  3  2  0
  2  4  2  0
  2  5  1  0
  5  6  1  0
  6  7  1  0
  7  8  1  0
  8  9  1  0
  9 10  1  0
 10 11  1  0
 11 12  1  0
 12 13  1  0
 13 14  2  0
 14 15  1  0
 15 16  2  0
 16 17  1  0
 16 18  1  0
 18 19  1  0
 19 20  1  0
 20 21  1  0
 21 22  1  0
 22 23  1  0
 23 24  1  0
 24 25  1  0
 25 26  2  0
 26 27  1  0
 27 28  2  0
 28 29  1  0
 29 30  2  0
 24 31  1  0
 31 32  2  0
 31 33  2  0
 10 34  1  0
 34  6  1  0
 19 10  1  0
 31 20  1  0
 18 13  1  0
 30 25  1  0
  1 35  1  0
  1 36  1  0
  1 37  1  0
  5 38  1  0
  6 39  1  0
  7 40  1  0
  7 41  1  0
  8 42  1  0
  8 43  1  0
  9 44  1  0
  9 45  1  0
 11 46  1  0
 11 47  1  0
 12 48  1  0
 12 49  1  0
 17 50  1  0
 17 51  1  0
 19 52  1  0
 21 53  1  0
 21 54  1  0
 22 55  1  0
 22 56  1  0
 23 57  1  0
 23 58  1  0
 24 59  1  0
 26 60  1  0
 27 61  1  0
 28 62  1  0
 29 63  1  0
 30 64  1  0
 34 65  1  0
 34 66  1  0
M  END
>  <Energy>  (716) 
-29.873870672780178

>  <compound_id>  (716) 
4328

>  <target_id>  (716) 
1

>  <reference_id>  (716) 
150

>  <inspiration_ids>  (716) 
[150, 198]

>  <energy_score>  (716) 
-118.53763951036751

>  <distance_score>  (716) 
2.5911787947117038

>  <path>  (716) 
/opt/xchem-fragalysis-2/maxwin/BulkDock/SCRATCH/505735/C4328-P150/C4328-P150.minimised.mol

>  <scratch_subdir>  (716) 
/opt/xchem-fragalysis-2/maxwin/BulkDock/SCRATCH/505735/C4328-P150

>  <fragmenstein_runtime>  (716) 
9.9307541847229

>  <fragmenstein_outcome>  (716) 
too moved

>  <fragmenstein_mode>  (716) 
expansion

>  <fragmenstein_error>  (716) 


$$$$
C4328-P198
     RDKit          3D

 66 70  0  0  0  0  0  0  0  0999 V2000
   -2.0423    0.3193   27.0029 C   0  0  0  0  0  0  0  0  0  0  0  0
   -0.9312    0.1563   28.3702 S   0  0  0  0  0  0  0  0  0  0  0  0
    0.3995   -0.1494   27.8925 O   0  0  0  0  0  0  0  0  0  0  0  0
   -1.1713    1.2851   29.2390 O   0  0  0  0  0  0  0  0  0  0  0  0
   -1.4645   -1.2562   29.1524 N   0  0  0  0  0  0  0  0  0  0  0  0
   -1.2924   -1.3851   30.6514 C   0  0  0  0  0  0  0  0  0  0  0  0
   -0.2258   -0.4538   31.2230 C   0  0  0  0  0  0  0  0  0  0  0  0
    0.3568   -0.9929   32.5053 C   0  0  0  0  0  0  0  0  0  0  0  0
    1.1298   -2.2736   32.2202 C   0  0  0  0  0  0  0  0  0  0  0  0
    0.2933   -3.4202   31.5863 C   0  0  0  0  0  0  0  0  0  0  0  0
    0.9681   -3.8132   30.2399 C   0  0  0  0  0  0  0  0  0  0  0  0
    0.3458   -5.0447   29.5812 C   0  0  0  0  0  0  0  0  0  0  0  0
   -0.2222   -6.0822   30.4949 C   0  0  0  0  0  0  0  0  0  0  0  0
   -0.8517   -7.1891   30.1600 N   0  0  0  0  0  0  0  0  0  0  0  0
   -1.2571   -7.8079   31.3111 N   0  0  0  0  0  0  0  0  0  0  0  0
   -0.8054   -7.1124   32.3300 C   0  0  0  0  0  0  0  0  0  0  0  0
   -0.8736   -7.4917   33.6209 N   0  0  0  0  0  0  0  0  0  0  0  0
   -0.2228   -5.9599   31.8646 N   0  0  0  0  0  0  0  0  0  0  0  0
    0.4810   -4.8161   32.4589 C   0  0  0  0  0  0  0  0  0  0  0  0
    0.6270   -4.6653   33.9544 N   0  0  0  0  0  0  0  0  0  0  0  0
   -0.6309   -4.6394   34.7206 C   0  0  0  0  0  0  0  0  0  0  0  0
   -0.4996   -5.1563   36.1547 C   0  0  0  0  0  0  0  0  0  0  0  0
    0.6760   -4.5035   36.8698 C   0  0  0  0  0  0  0  0  0  0  0  0
    2.0428   -4.9287   36.3199 C   0  0  0  0  0  0  0  0  0  0  0  0
    2.7785   -5.9938   37.1175 C   0  0  0  0  0  0  0  0  0  0  0  0
    2.1156   -7.0434   37.7744 C   0  0  0  0  0  0  0  0  0  0  0  0
    2.8326   -8.0141   38.4773 C   0  0  0  0  0  0  0  0  0  0  0  0
    4.2220   -7.9565   38.5299 C   0  0  0  0  0  0  0  0  0  0  0  0
    4.8973   -6.9271   37.8804 C   0  0  0  0  0  0  0  0  0  0  0  0
    4.1827   -5.9538   37.1791 C   0  0  0  0  0  0  0  0  0  0  0  0
    1.9595   -5.5124   34.5989 S   0  0  0  0  0  0  0  0  0  0  0  0
    3.1298   -5.0431   33.8850 O   0  0  0  0  0  0  0  0  0  0  0  0
    1.6047   -6.9193   34.5400 O   0  0  0  0  0  0  0  0  0  0  0  0
   -1.1594   -2.8824   31.2229 C   0  0  0  0  0  0  0  0  0  0  0  0
   -1.5746    0.9788   26.2755 H   0  0  0  0  0  0  0  0  0  0  0  0
   -2.2499   -0.6588   26.5806 H   0  0  0  0  0  0  0  0  0  0  0  0
   -2.9538    0.8081   27.3347 H   0  0  0  0  0  0  0  0  0  0  0  0
   -1.1533   -2.0708   28.6155 H   0  0  0  0  0  0  0  0  0  0  0  0
   -2.2596   -1.0337   31.0418 H   0  0  0  0  0  0  0  0  0  0  0  0
    0.6039   -0.3007   30.5252 H   0  0  0  0  0  0  0  0  0  0  0  0
   -0.6610    0.5272   31.4424 H   0  0  0  0  0  0  0  0  0  0  0  0
   -0.4231   -1.1668   33.2561 H   0  0  0  0  0  0  0  0  0  0  0  0
    1.0426   -0.2516   32.9329 H   0  0  0  0  0  0  0  0  0  0  0  0
    1.5948   -2.5882   33.1590 H   0  0  0  0  0  0  0  0  0  0  0  0
    1.9785   -2.0185   31.5710 H   0  0  0  0  0  0  0  0  0  0  0  0
    2.0357   -4.0180   30.4073 H   0  0  0  0  0  0  0  0  0  0  0  0
    0.9517   -2.9763   29.5301 H   0  0  0  0  0  0  0  0  0  0  0  0
    1.1240   -5.5052   28.9651 H   0  0  0  0  0  0  0  0  0  0  0  0
   -0.4565   -4.6930   28.9248 H   0  0  0  0  0  0  0  0  0  0  0  0
    0.0159   -7.4199   34.1274 H   0  0  0  0  0  0  0  0  0  0  0  0
   -1.1968   -8.4585   33.7350 H   0  0  0  0  0  0  0  0  0  0  0  0
    1.5082   -5.0960   32.1740 H   0  0  0  0  0  0  0  0  0  0  0  0
   -0.9641   -3.5948   34.7519 H   0  0  0  0  0  0  0  0  0  0  0  0
   -1.3992   -5.2038   34.2079 H   0  0  0  0  0  0  0  0  0  0  0  0
   -0.4140   -6.2468   36.1728 H   0  0  0  0  0  0  0  0  0  0  0  0
   -1.4238   -4.9139   36.6922 H   0  0  0  0  0  0  0  0  0  0  0  0
    0.5794   -3.4154   36.7517 H   0  0  0  0  0  0  0  0  0  0  0  0
    0.6102   -4.6833   37.9494 H   0  0  0  0  0  0  0  0  0  0  0  0
    2.6686   -4.0264   36.2939 H   0  0  0  0  0  0  0  0  0  0  0  0
    1.0334   -7.1391   37.7494 H   0  0  0  0  0  0  0  0  0  0  0  0
    2.3020   -8.8222   38.9785 H   0  0  0  0  0  0  0  0  0  0  0  0
    4.7771   -8.7160   39.0748 H   0  0  0  0  0  0  0  0  0  0  0  0
    5.9831   -6.8836   37.9177 H   0  0  0  0  0  0  0  0  0  0  0  0
    4.7388   -5.1651   36.6738 H   0  0  0  0  0  0  0  0  0  0  0  0
   -1.6804   -3.5603   30.5439 H   0  0  0  0  0  0  0  0  0  0  0  0
   -1.7331   -2.9101   32.1600 H   0  0  0  0  0  0  0  0  0  0  0  0
  1  2  1  0
  2  3  2  0
  2  4  2  0
  2  5  1  0
  5  6  1  0
  6  7  1  0
  7  8  1  0
  8  9  1  0
  9 10  1  0
 10 11  1  0
 11 12  1  0
 12 13  1  0
 13 14  2  0
 14 15  1  0
 15 16  2  0
 16 17  1  0
 16 18  1  0
 18 19  1  0
 19 20  1  0
 20 21  1  0
 21 22  1  0
 22 23  1  0
 23 24  1  0
 24 25  1  0
 25 26  2  0
 26 27  1  0
 27 28  2  0
 28 29  1  0
 29 30  2  0
 24 31  1  0
 31 32  2  0
 31 33  2  0
 10 34  1  0
 34  6  1  0
 19 10  1  0
 31 20  1  0
 18 13  1  0
 30 25  1  0
  1 35  1  0
  1 36  1  0
  1 37  1  0
  5 38  1  0
  6 39  1  0
  7 40  1  0
  7 41  1  0
  8 42  1  0
  8 43  1  0
  9 44  1  0
  9 45  1  0
 11 46  1  0
 11 47  1  0
 12 48  1  0
 12 49  1  0
 17 50  1  0
 17 51  1  0
 19 52  1  0
 21 53  1  0
 21 54  1  0
 22 55  1  0
 22 56  1  0
 23 57  1  0
 23 58  1  0
 24 59  1  0
 26 60  1  0
 27 61  1  0
 28 62  1  0
 29 63  1  0
 30 64  1  0
 34 65  1  0
 34 66  1  0
M  END
>  <Energy>  (717) 
-34.170882106363045

>  <compound_id>  (717) 
4328

>  <target_id>  (717) 
1

>  <reference_id>  (717) 
198

>  <inspiration_ids>  (717) 
[150, 198]

>  <energy_score>  (717) 
-122.83465094395387

>  <distance_score>  (717) 
2.5482730850174566

>  <path>  (717) 
/opt/xchem-fragalysis-2/maxwin/BulkDock/SCRATCH/505735/C4328-P198/C4328-P198.minimised.mol

>  <scratch_subdir>  (717) 
/opt/xchem-fragalysis-2/maxwin/BulkDock/SCRATCH/505735/C4328-P198

>  <fragmenstein_runtime>  (717) 
8.651755571365356

>  <fragmenstein_outcome>  (717) 
too moved

>  <fragmenstein_mode>  (717) 
expansion

>  <fragmenstein_error>  (717) 


$$$$
C3760-P150
     RDKit          3D

 61 65  0  0  0  0  0  0  0  0999 V2000
    3.5486   -1.3879   30.8544 C   0  0  0  0  0  0  0  0  0  0  0  0
    2.0795   -1.5032   30.5346 N   0  0  0  0  0  0  0  0  0  0  0  0
    2.2522   -0.0428   30.2131 C   0  0  0  0  0  0  0  0  0  0  0  0
    1.0375    0.4180   29.3820 C   0  0  0  0  0  0  0  0  0  0  0  0
    0.1418   -0.4782   28.7716 C   0  0  0  0  0  0  0  0  0  0  0  0
   -0.8987   -0.0168   27.9646 C   0  0  0  0  0  0  0  0  0  0  0  0
   -1.0553    1.3461   27.7384 C   0  0  0  0  0  0  0  0  0  0  0  0
   -0.1606    2.2465   28.3099 C   0  0  0  0  0  0  0  0  0  0  0  0
    0.8707    1.7894   29.1350 C   0  0  0  0  0  0  0  0  0  0  0  0
    1.3778   -2.1557   31.6364 C   0  0  0  0  0  0  0  0  0  0  0  0
    0.8545   -1.6958   32.5859 O   0  0  0  0  0  0  0  0  0  0  0  0
    1.4354   -3.5354   31.1576 N   0  0  0  0  0  0  0  0  0  0  0  0
    0.8268   -4.6700   31.6197 C   0  0  0  0  0  0  0  0  0  0  0  0
    0.5317   -5.6138   30.5376 C   0  0  0  0  0  0  0  0  0  0  0  0
   -0.2017   -6.7212   30.7238 C   0  0  0  0  0  0  0  0  0  0  0  0
   -0.6661   -7.0237   32.0172 C   0  0  0  0  0  0  0  0  0  0  0  0
   -1.4528   -7.9727   32.4579 N   0  0  0  0  0  0  0  0  0  0  0  0
   -1.5288   -7.8351   33.8198 N   0  0  0  0  0  0  0  0  0  0  0  0
   -0.7567   -6.8334   34.1725 C   0  0  0  0  0  0  0  0  0  0  0  0
   -0.2744   -6.1993   33.0615 N   0  0  0  0  0  0  0  0  0  0  0  0
    0.4395   -5.0049   32.8748 C   0  0  0  0  0  0  0  0  0  0  0  0
    0.8494   -4.1415   33.9459 N   0  0  0  0  0  0  0  0  0  0  0  0
   -0.1874   -3.6147   34.8754 C   0  0  0  0  0  0  0  0  0  0  0  0
    0.3841   -3.1040   36.1980 C   0  0  0  0  0  0  0  0  0  0  0  0
    1.6527   -2.2815   36.0026 C   0  0  0  0  0  0  0  0  0  0  0  0
    2.8390   -3.0781   35.4360 C   0  0  0  0  0  0  0  0  0  0  0  0
    3.9393   -3.4137   36.4274 C   0  0  0  0  0  0  0  0  0  0  0  0
    5.2824   -3.3071   36.0266 C   0  0  0  0  0  0  0  0  0  0  0  0
    6.3195   -3.6152   36.9088 C   0  0  0  0  0  0  0  0  0  0  0  0
    6.0314   -4.0381   38.2031 C   0  0  0  0  0  0  0  0  0  0  0  0
    4.7066   -4.1575   38.6143 C   0  0  0  0  0  0  0  0  0  0  0  0
    3.6673   -3.8500   37.7335 C   0  0  0  0  0  0  0  0  0  0  0  0
    2.3385   -4.6169   34.6202 S   0  0  0  0  0  0  0  0  0  0  0  0
    2.0247   -5.6524   35.5862 O   0  0  0  0  0  0  0  0  0  0  0  0
    3.2645   -4.8923   33.5378 O   0  0  0  0  0  0  0  0  0  0  0  0
    3.7943   -0.7010   31.6800 H   0  0  0  0  0  0  0  0  0  0  0  0
    4.1857   -1.2812   29.9639 H   0  0  0  0  0  0  0  0  0  0  0  0
    3.8461   -2.3693   31.2546 H   0  0  0  0  0  0  0  0  0  0  0  0
    2.2285    0.5548   31.1375 H   0  0  0  0  0  0  0  0  0  0  0  0
    3.0875    0.2247   29.5443 H   0  0  0  0  0  0  0  0  0  0  0  0
    0.2428   -1.5528   28.8957 H   0  0  0  0  0  0  0  0  0  0  0  0
   -1.5721   -0.7316   27.4957 H   0  0  0  0  0  0  0  0  0  0  0  0
   -1.8724    1.7062   27.1175 H   0  0  0  0  0  0  0  0  0  0  0  0
   -0.2790    3.3126   28.1259 H   0  0  0  0  0  0  0  0  0  0  0  0
    1.5548    2.5156   29.5685 H   0  0  0  0  0  0  0  0  0  0  0  0
    1.9022   -3.5556   30.2607 H   0  0  0  0  0  0  0  0  0  0  0  0
    0.8871   -5.3724   29.5413 H   0  0  0  0  0  0  0  0  0  0  0  0
   -0.4465   -7.3990   29.9175 H   0  0  0  0  0  0  0  0  0  0  0  0
   -0.5473   -6.5276   35.1864 H   0  0  0  0  0  0  0  0  0  0  0  0
   -0.6943   -2.7849   34.3689 H   0  0  0  0  0  0  0  0  0  0  0  0
   -0.9523   -4.3561   35.1017 H   0  0  0  0  0  0  0  0  0  0  0  0
    0.5732   -3.9403   36.8797 H   0  0  0  0  0  0  0  0  0  0  0  0
   -0.3765   -2.4848   36.6890 H   0  0  0  0  0  0  0  0  0  0  0  0
    1.9233   -1.7830   36.9411 H   0  0  0  0  0  0  0  0  0  0  0  0
    1.4189   -1.4668   35.3041 H   0  0  0  0  0  0  0  0  0  0  0  0
    3.2763   -2.4629   34.6372 H   0  0  0  0  0  0  0  0  0  0  0  0
    5.5362   -2.9896   35.0166 H   0  0  0  0  0  0  0  0  0  0  0  0
    7.3534   -3.5309   36.5832 H   0  0  0  0  0  0  0  0  0  0  0  0
    6.8386   -4.2824   38.8887 H   0  0  0  0  0  0  0  0  0  0  0  0
    4.4805   -4.4986   39.6216 H   0  0  0  0  0  0  0  0  0  0  0  0
    2.6450   -3.9724   38.0828 H   0  0  0  0  0  0  0  0  0  0  0  0
  1  2  1  0
  2  3  1  0
  3  4  1  0
  4  5  2  0
  5  6  1  0
  6  7  2  0
  7  8  1  0
  8  9  2  0
  2 10  1  0
 10 11  2  0
 10 12  1  0
 12 13  1  0
 13 14  1  0
 14 15  2  0
 15 16  1  0
 16 17  2  0
 17 18  1  0
 18 19  2  0
 19 20  1  0
 20 21  1  0
 21 22  1  0
 22 23  1  0
 23 24  1  0
 24 25  1  0
 25 26  1  0
 26 27  1  0
 27 28  2  0
 28 29  1  0
 29 30  2  0
 30 31  1  0
 31 32  2  0
 26 33  1  0
 33 34  2  0
 33 35  2  0
  9  4  1  0
 21 13  2  0
 33 22  1  0
 20 16  1  0
 32 27  1  0
  1 36  1  0
  1 37  1  0
  1 38  1  0
  3 39  1  0
  3 40  1  0
  5 41  1  0
  6 42  1  0
  7 43  1  0
  8 44  1  0
  9 45  1  0
 12 46  1  0
 14 47  1  0
 15 48  1  0
 19 49  1  0
 23 50  1  0
 23 51  1  0
 24 52  1  0
 24 53  1  0
 25 54  1  0
 25 55  1  0
 26 56  1  0
 28 57  1  0
 29 58  1  0
 30 59  1  0
 31 60  1  0
 32 61  1  0
M  END
>  <Energy>  (718) 
96.656378394802587

>  <compound_id>  (718) 
3760

>  <target_id>  (718) 
1

>  <reference_id>  (718) 
150

>  <inspiration_ids>  (718) 
[150, 199]

>  <energy_score>  (718) 
33.47958190186364

>  <distance_score>  (718) 
2.307613968999594

>  <path>  (718) 
/opt/xchem-fragalysis-2/maxwin/BulkDock/SCRATCH/505735/C3760-P150/C3760-P150.minimised.mol

>  <scratch_subdir>  (718) 
/opt/xchem-fragalysis-2/maxwin/BulkDock/SCRATCH/505735/C3760-P150

>  <fragmenstein_runtime>  (718) 
20.389574766159058

>  <fragmenstein_outcome>  (718) 
too moved

>  <fragmenstein_mode>  (718) 
expansion

>  <fragmenstein_error>  (718) 


$$$$
C3760-P199
     RDKit          3D

 61 65  0  0  0  0  0  0  0  0999 V2000
    0.9706   -0.5362   33.8818 C   0  0  0  0  0  0  0  0  0  0  0  0
    0.5284   -1.0447   32.5342 N   0  0  0  0  0  0  0  0  0  0  0  0
    0.0129    0.3615   32.4100 C   0  0  0  0  0  0  0  0  0  0  0  0
   -0.3981    0.4865   30.9282 C   0  0  0  0  0  0  0  0  0  0  0  0
   -1.4586   -0.2750   30.4018 C   0  0  0  0  0  0  0  0  0  0  0  0
   -1.7520   -0.2477   29.0374 C   0  0  0  0  0  0  0  0  0  0  0  0
   -1.0205    0.5720   28.1849 C   0  0  0  0  0  0  0  0  0  0  0  0
    0.0147    1.3537   28.6930 C   0  0  0  0  0  0  0  0  0  0  0  0
    0.3335    1.3038   30.0534 C   0  0  0  0  0  0  0  0  0  0  0  0
   -0.1883   -2.3061   32.6853 C   0  0  0  0  0  0  0  0  0  0  0  0
   -1.3348   -2.5143   32.8352 O   0  0  0  0  0  0  0  0  0  0  0  0
    0.9245   -3.2306   32.4950 N   0  0  0  0  0  0  0  0  0  0  0  0
    0.9410   -4.5837   32.3435 C   0  0  0  0  0  0  0  0  0  0  0  0
    1.3621   -4.8901   30.9779 C   0  0  0  0  0  0  0  0  0  0  0  0
    0.8896   -5.9515   30.3165 C   0  0  0  0  0  0  0  0  0  0  0  0
    0.0247   -6.8529   30.9724 C   0  0  0  0  0  0  0  0  0  0  0  0
   -0.6458   -7.8940   30.5348 N   0  0  0  0  0  0  0  0  0  0  0  0
   -1.2862   -8.4463   31.6111 N   0  0  0  0  0  0  0  0  0  0  0  0
   -0.9740   -7.7383   32.6782 C   0  0  0  0  0  0  0  0  0  0  0  0
   -0.1749   -6.6773   32.3366 N   0  0  0  0  0  0  0  0  0  0  0  0
    0.2825   -5.5400   33.0472 C   0  0  0  0  0  0  0  0  0  0  0  0
    0.2419   -5.4361   34.4852 N   0  0  0  0  0  0  0  0  0  0  0  0
   -0.1400   -4.2332   35.2452 C   0  0  0  0  0  0  0  0  0  0  0  0
   -0.4597   -4.5329   36.7077 C   0  0  0  0  0  0  0  0  0  0  0  0
    0.7201   -5.0924   37.5076 C   0  0  0  0  0  0  0  0  0  0  0  0
    1.7018   -5.9246   36.6756 C   0  0  0  0  0  0  0  0  0  0  0  0
    2.5160   -6.9037   37.4971 C   0  0  0  0  0  0  0  0  0  0  0  0
    3.9107   -6.7501   37.5763 C   0  0  0  0  0  0  0  0  0  0  0  0
    4.6835   -7.6186   38.3503 C   0  0  0  0  0  0  0  0  0  0  0  0
    4.0749   -8.6495   39.0603 C   0  0  0  0  0  0  0  0  0  0  0  0
    2.6946   -8.8134   38.9937 C   0  0  0  0  0  0  0  0  0  0  0  0
    1.9196   -7.9507   38.2167 C   0  0  0  0  0  0  0  0  0  0  0  0
    0.8541   -6.7847   35.3414 S   0  0  0  0  0  0  0  0  0  0  0  0
   -0.2959   -7.4855   35.8670 O   0  0  0  0  0  0  0  0  0  0  0  0
    1.8261   -7.4483   34.4885 O   0  0  0  0  0  0  0  0  0  0  0  0
    0.1493   -0.2663   34.5644 H   0  0  0  0  0  0  0  0  0  0  0  0
    1.7880    0.1989   33.8391 H   0  0  0  0  0  0  0  0  0  0  0  0
    1.4416   -1.3933   34.3848 H   0  0  0  0  0  0  0  0  0  0  0  0
   -0.9135    0.5183   32.9844 H   0  0  0  0  0  0  0  0  0  0  0  0
    0.7392    1.1746   32.5667 H   0  0  0  0  0  0  0  0  0  0  0  0
   -2.0494   -0.9235   31.0436 H   0  0  0  0  0  0  0  0  0  0  0  0
   -2.5420   -0.8770   28.6322 H   0  0  0  0  0  0  0  0  0  0  0  0
   -1.2579    0.5874   27.1242 H   0  0  0  0  0  0  0  0  0  0  0  0
    0.5841    1.9941   28.0246 H   0  0  0  0  0  0  0  0  0  0  0  0
    1.1634    1.9050   30.4169 H   0  0  0  0  0  0  0  0  0  0  0  0
    1.7679   -2.7010   32.3128 H   0  0  0  0  0  0  0  0  0  0  0  0
    2.0308   -4.2004   30.4683 H   0  0  0  0  0  0  0  0  0  0  0  0
    1.1985   -6.1426   29.3021 H   0  0  0  0  0  0  0  0  0  0  0  0
   -1.3315   -7.9321   33.6786 H   0  0  0  0  0  0  0  0  0  0  0  0
    0.6733   -3.5025   35.2040 H   0  0  0  0  0  0  0  0  0  0  0  0
   -1.0316   -3.7880   34.8100 H   0  0  0  0  0  0  0  0  0  0  0  0
   -1.2944   -5.2418   36.7544 H   0  0  0  0  0  0  0  0  0  0  0  0
   -0.8169   -3.6194   37.1983 H   0  0  0  0  0  0  0  0  0  0  0  0
    0.3094   -5.6687   38.3459 H   0  0  0  0  0  0  0  0  0  0  0  0
    1.2747   -4.2646   37.9687 H   0  0  0  0  0  0  0  0  0  0  0  0
    2.3927   -5.2440   36.1589 H   0  0  0  0  0  0  0  0  0  0  0  0
    4.4138   -5.9500   37.0375 H   0  0  0  0  0  0  0  0  0  0  0  0
    5.7615   -7.4888   38.4017 H   0  0  0  0  0  0  0  0  0  0  0  0
    4.6738   -9.3262   39.6638 H   0  0  0  0  0  0  0  0  0  0  0  0
    2.2103   -9.6213   39.5377 H   0  0  0  0  0  0  0  0  0  0  0  0
    0.8434   -8.1253   38.1796 H   0  0  0  0  0  0  0  0  0  0  0  0
  1  2  1  0
  2  3  1  0
  3  4  1  0
  4  5  2  0
  5  6  1  0
  6  7  2  0
  7  8  1  0
  8  9  2  0
  2 10  1  0
 10 11  2  0
 10 12  1  0
 12 13  1  0
 13 14  1  0
 14 15  2  0
 15 16  1  0
 16 17  2  0
 17 18  1  0
 18 19  2  0
 19 20  1  0
 20 21  1  0
 21 22  1  0
 22 23  1  0
 23 24  1  0
 24 25  1  0
 25 26  1  0
 26 27  1  0
 27 28  2  0
 28 29  1  0
 29 30  2  0
 30 31  1  0
 31 32  2  0
 26 33  1  0
 33 34  2  0
 33 35  2  0
  9  4  1  0
 21 13  2  0
 33 22  1  0
 20 16  1  0
 32 27  1  0
  1 36  1  0
  1 37  1  0
  1 38  1  0
  3 39  1  0
  3 40  1  0
  5 41  1  0
  6 42  1  0
  7 43  1  0
  8 44  1  0
  9 45  1  0
 12 46  1  0
 14 47  1  0
 15 48  1  0
 19 49  1  0
 23 50  1  0
 23 51  1  0
 24 52  1  0
 24 53  1  0
 25 54  1  0
 25 55  1  0
 26 56  1  0
 28 57  1  0
 29 58  1  0
 30 59  1  0
 31 60  1  0
 32 61  1  0
M  END
>  <Energy>  (719) 
123.7760752382985

>  <compound_id>  (719) 
3760

>  <target_id>  (719) 
1

>  <reference_id>  (719) 
199

>  <inspiration_ids>  (719) 
[150, 199]

>  <energy_score>  (719) 
60.59927874536117

>  <distance_score>  (719) 
1.5959362855308323

>  <path>  (719) 
/opt/xchem-fragalysis-2/maxwin/BulkDock/SCRATCH/505735/C3760-P199/C3760-P199.minimised.mol

>  <scratch_subdir>  (719) 
/opt/xchem-fragalysis-2/maxwin/BulkDock/SCRATCH/505735/C3760-P199

>  <fragmenstein_runtime>  (719) 
16.096551179885864

>  <fragmenstein_outcome>  (719) 
too moved

>  <fragmenstein_mode>  (719) 
expansion

>  <fragmenstein_error>  (719) 


$$$$
C3761-P150
     RDKit          3D

 64 68  0  0  0  0  0  0  0  0999 V2000
    7.1713   -4.5882   32.0224 C   0  0  0  0  0  0  0  0  0  0  0  0
    5.7259   -4.2530   32.0915 N   0  0  0  0  0  0  0  0  0  0  0  0
    6.1772   -3.0933   31.1770 C   0  0  0  0  0  0  0  0  0  0  0  0
    5.0248   -2.6459   30.2723 C   0  0  0  0  0  0  0  0  0  0  0  0
    4.6509   -3.4298   29.1682 C   0  0  0  0  0  0  0  0  0  0  0  0
    3.6014   -3.0286   28.3411 C   0  0  0  0  0  0  0  0  0  0  0  0
    2.9142   -1.8461   28.6111 C   0  0  0  0  0  0  0  0  0  0  0  0
    3.2775   -1.0607   29.7039 C   0  0  0  0  0  0  0  0  0  0  0  0
    4.3297   -1.4556   30.5308 C   0  0  0  0  0  0  0  0  0  0  0  0
    4.9203   -3.7349   33.2055 C   0  0  0  0  0  0  0  0  0  0  0  0
    5.2465   -3.3811   34.2761 O   0  0  0  0  0  0  0  0  0  0  0  0
    3.6047   -3.8804   32.6272 N   0  0  0  0  0  0  0  0  0  0  0  0
    2.3081   -3.5498   33.1470 C   0  0  0  0  0  0  0  0  0  0  0  0
    1.3141   -4.5672   32.6481 C   0  0  0  0  0  0  0  0  0  0  0  0
    1.0198   -4.4916   31.2108 C   0  0  0  0  0  0  0  0  0  0  0  0
    0.2149   -5.3731   30.5986 C   0  0  0  0  0  0  0  0  0  0  0  0
   -0.3841   -6.4121   31.3485 C   0  0  0  0  0  0  0  0  0  0  0  0
   -1.1951   -7.3847   30.9973 N   0  0  0  0  0  0  0  0  0  0  0  0
   -1.5526   -8.0520   32.1368 N   0  0  0  0  0  0  0  0  0  0  0  0
   -0.9417   -7.4797   33.1533 C   0  0  0  0  0  0  0  0  0  0  0  0
   -0.1585   -6.4425   32.7216 N   0  0  0  0  0  0  0  0  0  0  0  0
    0.6819   -5.5226   33.3761 C   0  0  0  0  0  0  0  0  0  0  0  0
    0.9481   -5.4690   34.7833 N   0  0  0  0  0  0  0  0  0  0  0  0
    0.1104   -4.5719   35.6270 C   0  0  0  0  0  0  0  0  0  0  0  0
    0.5542   -4.5749   37.0968 C   0  0  0  0  0  0  0  0  0  0  0  0
    2.0564   -4.8079   37.2830 C   0  0  0  0  0  0  0  0  0  0  0  0
    2.5724   -6.1685   36.7668 C   0  0  0  0  0  0  0  0  0  0  0  0
    2.8704   -7.2098   37.8289 C   0  0  0  0  0  0  0  0  0  0  0  0
    4.0726   -7.9351   37.7620 C   0  0  0  0  0  0  0  0  0  0  0  0
    4.3839   -8.8973   38.7249 C   0  0  0  0  0  0  0  0  0  0  0  0
    3.4991   -9.1511   39.7691 C   0  0  0  0  0  0  0  0  0  0  0  0
    2.2995   -8.4487   39.8453 C   0  0  0  0  0  0  0  0  0  0  0  0
    1.9856   -7.4870   38.8818 C   0  0  0  0  0  0  0  0  0  0  0  0
    1.4593   -6.9006   35.5431 S   0  0  0  0  0  0  0  0  0  0  0  0
    2.2235   -7.6832   34.5901 O   0  0  0  0  0  0  0  0  0  0  0  0
    0.2787   -7.4429   36.1807 O   0  0  0  0  0  0  0  0  0  0  0  0
    7.2745   -5.4132   32.7421 H   0  0  0  0  0  0  0  0  0  0  0  0
    7.8546   -3.8262   32.4288 H   0  0  0  0  0  0  0  0  0  0  0  0
    7.4724   -5.0373   31.0650 H   0  0  0  0  0  0  0  0  0  0  0  0
    6.4723   -2.2385   31.8072 H   0  0  0  0  0  0  0  0  0  0  0  0
    6.9792   -3.2738   30.4370 H   0  0  0  0  0  0  0  0  0  0  0  0
    5.1827   -4.3527   28.9442 H   0  0  0  0  0  0  0  0  0  0  0  0
    3.3277   -3.6332   27.4801 H   0  0  0  0  0  0  0  0  0  0  0  0
    2.0981   -1.5301   27.9658 H   0  0  0  0  0  0  0  0  0  0  0  0
    2.7429   -0.1362   29.9075 H   0  0  0  0  0  0  0  0  0  0  0  0
    4.5989   -0.8331   31.3817 H   0  0  0  0  0  0  0  0  0  0  0  0
    3.6922   -4.2878   31.7065 H   0  0  0  0  0  0  0  0  0  0  0  0
    2.0491   -2.5448   32.7963 H   0  0  0  0  0  0  0  0  0  0  0  0
    2.3893   -3.4960   34.2348 H   0  0  0  0  0  0  0  0  0  0  0  0
    1.4601   -3.6798   30.6354 H   0  0  0  0  0  0  0  0  0  0  0  0
   -0.0152   -5.2811   29.5445 H   0  0  0  0  0  0  0  0  0  0  0  0
   -1.0401   -7.7862   34.1837 H   0  0  0  0  0  0  0  0  0  0  0  0
    0.1972   -3.5484   35.2437 H   0  0  0  0  0  0  0  0  0  0  0  0
   -0.9431   -4.8592   35.5555 H   0  0  0  0  0  0  0  0  0  0  0  0
   -0.0100   -5.3332   37.6510 H   0  0  0  0  0  0  0  0  0  0  0  0
    0.2743   -3.6155   37.5486 H   0  0  0  0  0  0  0  0  0  0  0  0
    2.3271   -4.6629   38.3358 H   0  0  0  0  0  0  0  0  0  0  0  0
    2.5824   -4.0137   36.7357 H   0  0  0  0  0  0  0  0  0  0  0  0
    3.5012   -5.9634   36.2166 H   0  0  0  0  0  0  0  0  0  0  0  0
    4.7842   -7.7577   36.9565 H   0  0  0  0  0  0  0  0  0  0  0  0
    5.3199   -9.4472   38.6586 H   0  0  0  0  0  0  0  0  0  0  0  0
    3.7453   -9.8964   40.5203 H   0  0  0  0  0  0  0  0  0  0  0  0
    1.5992   -8.6514   40.6515 H   0  0  0  0  0  0  0  0  0  0  0  0
    1.0307   -6.9734   38.9618 H   0  0  0  0  0  0  0  0  0  0  0  0
  1  2  1  0
  2  3  1  0
  3  4  1  0
  4  5  2  0
  5  6  1  0
  6  7  2  0
  7  8  1  0
  8  9  2  0
  2 10  1  0
 10 11  2  0
 10 12  1  0
 12 13  1  0
 13 14  1  0
 14 15  1  0
 15 16  2  0
 16 17  1  0
 17 18  2  0
 18 19  1  0
 19 20  2  0
 20 21  1  0
 21 22  1  0
 22 23  1  0
 23 24  1  0
 24 25  1  0
 25 26  1  0
 26 27  1  0
 27 28  1  0
 28 29  2  0
 29 30  1  0
 30 31  2  0
 31 32  1  0
 32 33  2  0
 27 34  1  0
 34 35  2  0
 34 36  2  0
  9  4  1  0
 22 14  2  0
 34 23  1  0
 21 17  1  0
 33 28  1  0
  1 37  1  0
  1 38  1  0
  1 39  1  0
  3 40  1  0
  3 41  1  0
  5 42  1  0
  6 43  1  0
  7 44  1  0
  8 45  1  0
  9 46  1  0
 12 47  1  0
 13 48  1  0
 13 49  1  0
 15 50  1  0
 16 51  1  0
 20 52  1  0
 24 53  1  0
 24 54  1  0
 25 55  1  0
 25 56  1  0
 26 57  1  0
 26 58  1  0
 27 59  1  0
 29 60  1  0
 30 61  1  0
 31 62  1  0
 32 63  1  0
 33 64  1  0
M  END
>  <Energy>  (720) 
71.420112657215313

>  <compound_id>  (720) 
3761

>  <target_id>  (720) 
1

>  <reference_id>  (720) 
150

>  <inspiration_ids>  (720) 
[150, 200]

>  <energy_score>  (720) 
-8.783887012430796

>  <distance_score>  (720) 
1.344214858863139

>  <path>  (720) 
/opt/xchem-fragalysis-2/maxwin/BulkDock/SCRATCH/505735/C3761-P150/C3761-P150.minimised.mol

>  <scratch_subdir>  (720) 
/opt/xchem-fragalysis-2/maxwin/BulkDock/SCRATCH/505735/C3761-P150

>  <fragmenstein_runtime>  (720) 
17.195704698562622

>  <fragmenstein_outcome>  (720) 
too moved

>  <fragmenstein_mode>  (720) 
expansion

>  <fragmenstein_error>  (720) 


$$$$
C3761-P200
     RDKit          3D

 64 68  0  0  0  0  0  0  0  0999 V2000
    7.1995   -4.6264   30.8647 C   0  0  0  0  0  0  0  0  0  0  0  0
    5.7639   -4.3729   31.1565 N   0  0  0  0  0  0  0  0  0  0  0  0
    6.0129   -3.2704   30.0972 C   0  0  0  0  0  0  0  0  0  0  0  0
    4.7253   -2.9261   29.3406 C   0  0  0  0  0  0  0  0  0  0  0  0
    4.3531   -3.6596   28.2019 C   0  0  0  0  0  0  0  0  0  0  0  0
    3.2081   -3.3114   27.4855 C   0  0  0  0  0  0  0  0  0  0  0  0
    2.4250   -2.2352   27.8998 C   0  0  0  0  0  0  0  0  0  0  0  0
    2.7819   -1.5030   29.0298 C   0  0  0  0  0  0  0  0  0  0  0  0
    3.9288   -1.8436   29.7465 C   0  0  0  0  0  0  0  0  0  0  0  0
    5.0929   -3.7977   32.4056 C   0  0  0  0  0  0  0  0  0  0  0  0
    5.5530   -3.3657   33.3557 O   0  0  0  0  0  0  0  0  0  0  0  0
    3.6239   -4.0659   32.0462 N   0  0  0  0  0  0  0  0  0  0  0  0
    2.4279   -3.9362   32.8421 C   0  0  0  0  0  0  0  0  0  0  0  0
    1.3706   -4.9004   32.3617 C   0  0  0  0  0  0  0  0  0  0  0  0
    1.0404   -4.8021   30.9352 C   0  0  0  0  0  0  0  0  0  0  0  0
    0.1771   -5.6368   30.3421 C   0  0  0  0  0  0  0  0  0  0  0  0
   -0.4636   -6.6422   31.0993 C   0  0  0  0  0  0  0  0  0  0  0  0
   -1.3392   -7.5633   30.7658 N   0  0  0  0  0  0  0  0  0  0  0  0
   -1.7199   -8.2005   31.9152 N   0  0  0  0  0  0  0  0  0  0  0  0
   -1.0646   -7.6544   32.9180 C   0  0  0  0  0  0  0  0  0  0  0  0
   -0.2237   -6.6742   32.4680 N   0  0  0  0  0  0  0  0  0  0  0  0
    0.6810   -5.8056   33.1045 C   0  0  0  0  0  0  0  0  0  0  0  0
    0.8830   -5.6862   34.5180 N   0  0  0  0  0  0  0  0  0  0  0  0
   -0.0673   -4.8458   35.2938 C   0  0  0  0  0  0  0  0  0  0  0  0
    0.6621   -4.2410   36.4963 C   0  0  0  0  0  0  0  0  0  0  0  0
    1.2621   -5.2925   37.4390 C   0  0  0  0  0  0  0  0  0  0  0  0
    2.2517   -6.2238   36.7186 C   0  0  0  0  0  0  0  0  0  0  0  0
    2.9160   -7.2522   37.6078 C   0  0  0  0  0  0  0  0  0  0  0  0
    4.3074   -7.4353   37.5268 C   0  0  0  0  0  0  0  0  0  0  0  0
    4.9554   -8.3685   38.3385 C   0  0  0  0  0  0  0  0  0  0  0  0
    4.2242   -9.1326   39.2429 C   0  0  0  0  0  0  0  0  0  0  0  0
    2.8456   -8.9660   39.3326 C   0  0  0  0  0  0  0  0  0  0  0  0
    2.1940   -8.0365   38.5188 C   0  0  0  0  0  0  0  0  0  0  0  0
    1.4082   -7.0733   35.3646 S   0  0  0  0  0  0  0  0  0  0  0  0
    2.3529   -7.7787   34.5224 O   0  0  0  0  0  0  0  0  0  0  0  0
    0.2144   -7.7268   35.8590 O   0  0  0  0  0  0  0  0  0  0  0  0
    7.8933   -3.8055   31.1080 H   0  0  0  0  0  0  0  0  0  0  0  0
    7.3739   -5.1418   29.9083 H   0  0  0  0  0  0  0  0  0  0  0  0
    7.4704   -5.3864   31.6128 H   0  0  0  0  0  0  0  0  0  0  0  0
    6.3440   -2.3567   30.6188 H   0  0  0  0  0  0  0  0  0  0  0  0
    6.7121   -3.4581   29.2593 H   0  0  0  0  0  0  0  0  0  0  0  0
    4.9660   -4.4882   27.8534 H   0  0  0  0  0  0  0  0  0  0  0  0
    2.9364   -3.8567   26.5843 H   0  0  0  0  0  0  0  0  0  0  0  0
    1.5473   -1.9549   27.3220 H   0  0  0  0  0  0  0  0  0  0  0  0
    2.1762   -0.6554   29.3387 H   0  0  0  0  0  0  0  0  0  0  0  0
    4.2037   -1.2541   30.6189 H   0  0  0  0  0  0  0  0  0  0  0  0
    3.5614   -4.3790   31.0869 H   0  0  0  0  0  0  0  0  0  0  0  0
    2.0773   -2.9035   32.7386 H   0  0  0  0  0  0  0  0  0  0  0  0
    2.7158   -4.0826   33.8864 H   0  0  0  0  0  0  0  0  0  0  0  0
    1.4837   -3.9998   30.3488 H   0  0  0  0  0  0  0  0  0  0  0  0
   -0.0773   -5.5077   29.3011 H   0  0  0  0  0  0  0  0  0  0  0  0
   -1.1699   -7.9394   33.9520 H   0  0  0  0  0  0  0  0  0  0  0  0
   -0.4396   -4.0281   34.6651 H   0  0  0  0  0  0  0  0  0  0  0  0
   -0.9397   -5.4303   35.6061 H   0  0  0  0  0  0  0  0  0  0  0  0
   -0.0383   -3.6141   37.0603 H   0  0  0  0  0  0  0  0  0  0  0  0
    1.4643   -3.5815   36.1421 H   0  0  0  0  0  0  0  0  0  0  0  0
    0.4389   -5.8619   37.8874 H   0  0  0  0  0  0  0  0  0  0  0  0
    1.7736   -4.7799   38.2631 H   0  0  0  0  0  0  0  0  0  0  0  0
    3.0286   -5.6124   36.2405 H   0  0  0  0  0  0  0  0  0  0  0  0
    4.9056   -6.8533   36.8273 H   0  0  0  0  0  0  0  0  0  0  0  0
    6.0316   -8.5015   38.2621 H   0  0  0  0  0  0  0  0  0  0  0  0
    4.7242   -9.8653   39.8706 H   0  0  0  0  0  0  0  0  0  0  0  0
    2.2636   -9.5804   40.0181 H   0  0  0  0  0  0  0  0  0  0  0  0
    1.1110   -7.9643   38.5993 H   0  0  0  0  0  0  0  0  0  0  0  0
  1  2  1  0
  2  3  1  0
  3  4  1  0
  4  5  2  0
  5  6  1  0
  6  7  2  0
  7  8  1  0
  8  9  2  0
  2 10  1  0
 10 11  2  0
 10 12  1  0
 12 13  1  0
 13 14  1  0
 14 15  1  0
 15 16  2  0
 16 17  1  0
 17 18  2  0
 18 19  1  0
 19 20  2  0
 20 21  1  0
 21 22  1  0
 22 23  1  0
 23 24  1  0
 24 25  1  0
 25 26  1  0
 26 27  1  0
 27 28  1  0
 28 29  2  0
 29 30  1  0
 30 31  2  0
 31 32  1  0
 32 33  2  0
 27 34  1  0
 34 35  2  0
 34 36  2  0
  9  4  1  0
 22 14  2  0
 34 23  1  0
 21 17  1  0
 33 28  1  0
  1 37  1  0
  1 38  1  0
  1 39  1  0
  3 40  1  0
  3 41  1  0
  5 42  1  0
  6 43  1  0
  7 44  1  0
  8 45  1  0
  9 46  1  0
 12 47  1  0
 13 48  1  0
 13 49  1  0
 15 50  1  0
 16 51  1  0
 20 52  1  0
 24 53  1  0
 24 54  1  0
 25 55  1  0
 25 56  1  0
 26 57  1  0
 26 58  1  0
 27 59  1  0
 29 60  1  0
 30 61  1  0
 31 62  1  0
 32 63  1  0
 33 64  1  0
M  END
>  <Energy>  (721) 
85.411354821125173

>  <compound_id>  (721) 
3761

>  <target_id>  (721) 
1

>  <reference_id>  (721) 
200

>  <inspiration_ids>  (721) 
[150, 200]

>  <energy_score>  (721) 
25.737648769632358

>  <distance_score>  (721) 
1.1061805208823363

>  <path>  (721) 
/opt/xchem-fragalysis-2/maxwin/BulkDock/SCRATCH/505735/C3761-P200/C3761-P200.minimised.mol

>  <scratch_subdir>  (721) 
/opt/xchem-fragalysis-2/maxwin/BulkDock/SCRATCH/505735/C3761-P200

>  <fragmenstein_runtime>  (721) 
9.170247077941895

>  <fragmenstein_outcome>  (721) 
too moved

>  <fragmenstein_mode>  (721) 
expansion

>  <fragmenstein_error>  (721) 


$$$$
C4329-P150
     RDKit          3D

 66 70  0  0  0  0  0  0  0  0999 V2000
    4.2521   -4.9907   28.1296 C   0  0  0  0  0  0  0  0  0  0  0  0
    4.4684   -4.8811   29.5301 O   0  0  0  0  0  0  0  0  0  0  0  0
    3.9291   -3.7018   30.1534 C   0  0  0  0  0  0  0  0  0  0  0  0
    4.1551   -3.8133   31.6939 C   0  0  0  0  0  0  0  0  0  0  0  0
    2.8865   -3.7119   32.6148 C   0  0  0  0  0  0  0  0  0  0  0  0
    1.5705   -4.4590   32.1557 C   0  0  0  0  0  0  0  0  0  0  0  0
    0.3112   -3.5304   32.2215 C   0  0  0  0  0  0  0  0  0  0  0  0
   -0.9195   -4.2178   31.6016 C   0  0  0  0  0  0  0  0  0  0  0  0
   -0.8802   -5.6863   31.8371 C   0  0  0  0  0  0  0  0  0  0  0  0
   -1.3954   -6.6930   31.1647 N   0  0  0  0  0  0  0  0  0  0  0  0
   -1.3841   -7.7827   31.9981 N   0  0  0  0  0  0  0  0  0  0  0  0
   -0.8011   -7.4058   33.1152 C   0  0  0  0  0  0  0  0  0  0  0  0
   -0.9667   -7.9231   34.3338 N   0  0  0  0  0  0  0  0  0  0  0  0
   -0.1724   -6.2152   32.8744 N   0  0  0  0  0  0  0  0  0  0  0  0
    1.2013   -5.7617   33.1039 C   0  0  0  0  0  0  0  0  0  0  0  0
    1.5916   -5.5498   34.5524 N   0  0  0  0  0  0  0  0  0  0  0  0
    0.8132   -4.5525   35.3349 C   0  0  0  0  0  0  0  0  0  0  0  0
    1.1972   -4.5115   36.8240 C   0  0  0  0  0  0  0  0  0  0  0  0
    2.6916   -4.7490   37.0629 C   0  0  0  0  0  0  0  0  0  0  0  0
    3.1958   -6.1382   36.6243 C   0  0  0  0  0  0  0  0  0  0  0  0
    3.4612   -7.1384   37.7346 C   0  0  0  0  0  0  0  0  0  0  0  0
    4.5918   -7.9698   37.6547 C   0  0  0  0  0  0  0  0  0  0  0  0
    4.8534   -8.9206   38.6432 C   0  0  0  0  0  0  0  0  0  0  0  0
    3.9887   -9.0583   39.7252 C   0  0  0  0  0  0  0  0  0  0  0  0
    2.8599   -8.2488   39.8162 C   0  0  0  0  0  0  0  0  0  0  0  0
    2.5966   -7.2966   38.8288 C   0  0  0  0  0  0  0  0  0  0  0  0
    2.0600   -6.9175   35.4516 S   0  0  0  0  0  0  0  0  0  0  0  0
    0.8707   -7.3715   36.1381 O   0  0  0  0  0  0  0  0  0  0  0  0
    2.7888   -7.8145   34.5833 O   0  0  0  0  0  0  0  0  0  0  0  0
    1.7084   -4.7131   30.6024 C   0  0  0  0  0  0  0  0  0  0  0  0
    2.4274   -3.5087   29.9549 C   0  0  0  0  0  0  0  0  0  0  0  0
    2.0394   -3.2847   28.6037 O   0  0  0  0  0  0  0  0  0  0  0  0
    0.7391   -2.6953   28.5127 C   0  0  0  0  0  0  0  0  0  0  0  0
    4.4587   -4.0446   27.6208 H   0  0  0  0  0  0  0  0  0  0  0  0
    3.2367   -5.3366   27.9240 H   0  0  0  0  0  0  0  0  0  0  0  0
    4.9404   -5.7474   27.7421 H   0  0  0  0  0  0  0  0  0  0  0  0
    4.4819   -2.8430   29.7542 H   0  0  0  0  0  0  0  0  0  0  0  0
    4.8271   -2.9970   31.9915 H   0  0  0  0  0  0  0  0  0  0  0  0
    4.7036   -4.7277   31.9406 H   0  0  0  0  0  0  0  0  0  0  0  0
    2.6563   -2.6427   32.7217 H   0  0  0  0  0  0  0  0  0  0  0  0
    3.1991   -4.0243   33.6152 H   0  0  0  0  0  0  0  0  0  0  0  0
    0.4705   -2.5676   31.7258 H   0  0  0  0  0  0  0  0  0  0  0  0
    0.0678   -3.2587   33.2485 H   0  0  0  0  0  0  0  0  0  0  0  0
   -1.0055   -3.9976   30.5337 H   0  0  0  0  0  0  0  0  0  0  0  0
   -1.8150   -3.7841   32.0600 H   0  0  0  0  0  0  0  0  0  0  0  0
   -1.3378   -8.8749   34.4412 H   0  0  0  0  0  0  0  0  0  0  0  0
   -0.4041   -7.6879   35.1520 H   0  0  0  0  0  0  0  0  0  0  0  0
    1.8184   -6.5662   32.7117 H   0  0  0  0  0  0  0  0  0  0  0  0
   -0.2638   -4.7108   35.2265 H   0  0  0  0  0  0  0  0  0  0  0  0
    1.0654   -3.5616   34.9484 H   0  0  0  0  0  0  0  0  0  0  0  0
    0.6024   -5.2357   37.3905 H   0  0  0  0  0  0  0  0  0  0  0  0
    0.9187   -3.5297   37.2269 H   0  0  0  0  0  0  0  0  0  0  0  0
    2.9387   -4.5540   38.1132 H   0  0  0  0  0  0  0  0  0  0  0  0
    3.2412   -3.9901   36.4890 H   0  0  0  0  0  0  0  0  0  0  0  0
    4.1295   -5.9818   36.0674 H   0  0  0  0  0  0  0  0  0  0  0  0
    5.2800   -7.8939   36.8138 H   0  0  0  0  0  0  0  0  0  0  0  0
    5.7317   -9.5570   38.5645 H   0  0  0  0  0  0  0  0  0  0  0  0
    4.1938   -9.7980   40.4942 H   0  0  0  0  0  0  0  0  0  0  0  0
    2.1753   -8.3614   40.6533 H   0  0  0  0  0  0  0  0  0  0  0  0
    1.6923   -6.6997   38.9213 H   0  0  0  0  0  0  0  0  0  0  0  0
    2.2197   -5.6417   30.3805 H   0  0  0  0  0  0  0  0  0  0  0  0
    0.7691   -4.8797   30.0778 H   0  0  0  0  0  0  0  0  0  0  0  0
    2.1889   -2.5722   30.4724 H   0  0  0  0  0  0  0  0  0  0  0  0
    0.0186   -3.4548   28.2044 H   0  0  0  0  0  0  0  0  0  0  0  0
    0.4011   -2.2405   29.4478 H   0  0  0  0  0  0  0  0  0  0  0  0
    0.7770   -1.8930   27.7775 H   0  0  0  0  0  0  0  0  0  0  0  0
  1  2  1  0
  2  3  1  0
  3  4  1  0
  4  5  1  0
  5  6  1  0
  6  7  1  0
  7  8  1  0
  8  9  1  0
  9 10  2  0
 10 11  1  0
 11 12  2  0
 12 13  1  0
 12 14  1  0
 14 15  1  0
 15 16  1  0
 16 17  1  0
 17 18  1  0
 18 19  1  0
 19 20  1  0
 20 21  1  0
 21 22  2  0
 22 23  1  0
 23 24  2  0
 24 25  1  0
 25 26  2  0
 20 27  1  0
 27 28  2  0
 27 29  2  0
  6 30  1  0
 30 31  1  0
 31 32  1  0
 32 33  1  0
 31  3  1  0
 15  6  1  0
 27 16  1  0
 14  9  1  0
 26 21  1  0
  1 34  1  0
  1 35  1  0
  1 36  1  0
  3 37  1  0
  4 38  1  0
  4 39  1  0
  5 40  1  0
  5 41  1  0
  7 42  1  0
  7 43  1  0
  8 44  1  0
  8 45  1  0
 13 46  1  0
 13 47  1  0
 15 48  1  0
 17 49  1  0
 17 50  1  0
 18 51  1  0
 18 52  1  0
 19 53  1  0
 19 54  1  0
 20 55  1  0
 22 56  1  0
 23 57  1  0
 24 58  1  0
 25 59  1  0
 26 60  1  0
 30 61  1  0
 30 62  1  0
 31 63  1  0
 33 64  1  0
 33 65  1  0
 33 66  1  0
M  END
>  <Energy>  (722) 
84.703186231206885

>  <compound_id>  (722) 
4329

>  <target_id>  (722) 
1

>  <reference_id>  (722) 
150

>  <inspiration_ids>  (722) 
[150, 201]

>  <energy_score>  (722) 
-75.10503349081216

>  <distance_score>  (722) 
2.1521911076636373

>  <path>  (722) 
/opt/xchem-fragalysis-2/maxwin/BulkDock/SCRATCH/505735/C4329-P150/C4329-P150.minimised.mol

>  <scratch_subdir>  (722) 
/opt/xchem-fragalysis-2/maxwin/BulkDock/SCRATCH/505735/C4329-P150

>  <fragmenstein_runtime>  (722) 
6.542694568634033

>  <fragmenstein_outcome>  (722) 
too moved

>  <fragmenstein_mode>  (722) 
expansion

>  <fragmenstein_error>  (722) 


$$$$
C4329-P201
     RDKit          3D

 66 70  0  0  0  0  0  0  0  0999 V2000
    5.2292   -5.5634   28.6173 C   0  0  0  0  0  0  0  0  0  0  0  0
    4.9604   -4.8706   29.8268 O   0  0  0  0  0  0  0  0  0  0  0  0
    3.9667   -3.8429   29.7534 C   0  0  0  0  0  0  0  0  0  0  0  0
    3.7937   -3.2276   31.1628 C   0  0  0  0  0  0  0  0  0  0  0  0
    3.1093   -4.1543   32.2012 C   0  0  0  0  0  0  0  0  0  0  0  0
    1.7947   -4.8355   31.7303 C   0  0  0  0  0  0  0  0  0  0  0  0
    0.6403   -3.8251   31.5649 C   0  0  0  0  0  0  0  0  0  0  0  0
   -0.5689   -4.4889   30.8959 C   0  0  0  0  0  0  0  0  0  0  0  0
   -0.7873   -5.8893   31.3572 C   0  0  0  0  0  0  0  0  0  0  0  0
   -1.6198   -6.8049   30.9098 N   0  0  0  0  0  0  0  0  0  0  0  0
   -1.6627   -7.8109   31.8481 N   0  0  0  0  0  0  0  0  0  0  0  0
   -0.7965   -7.5111   32.7900 C   0  0  0  0  0  0  0  0  0  0  0  0
   -0.6892   -8.0221   34.0223 N   0  0  0  0  0  0  0  0  0  0  0  0
   -0.0492   -6.4562   32.3545 N   0  0  0  0  0  0  0  0  0  0  0  0
    1.2718   -5.9732   32.7455 C   0  0  0  0  0  0  0  0  0  0  0  0
    1.3959   -5.6024   34.1898 N   0  0  0  0  0  0  0  0  0  0  0  0
    0.3411   -4.8120   34.8506 C   0  0  0  0  0  0  0  0  0  0  0  0
   -0.3307   -5.4694   36.0538 C   0  0  0  0  0  0  0  0  0  0  0  0
    0.5452   -6.3127   36.9784 C   0  0  0  0  0  0  0  0  0  0  0  0
    2.0396   -6.0555   36.8031 C   0  0  0  0  0  0  0  0  0  0  0  0
    2.9593   -6.8175   37.7403 C   0  0  0  0  0  0  0  0  0  0  0  0
    4.2270   -6.2847   38.0370 C   0  0  0  0  0  0  0  0  0  0  0  0
    5.1084   -6.9552   38.8874 C   0  0  0  0  0  0  0  0  0  0  0  0
    4.7384   -8.1692   39.4572 C   0  0  0  0  0  0  0  0  0  0  0  0
    3.4887   -8.7124   39.1746 C   0  0  0  0  0  0  0  0  0  0  0  0
    2.6060   -8.0445   38.3222 C   0  0  0  0  0  0  0  0  0  0  0  0
    2.5040   -6.4794   35.1006 S   0  0  0  0  0  0  0  0  0  0  0  0
    2.2189   -7.8766   34.8249 O   0  0  0  0  0  0  0  0  0  0  0  0
    3.8042   -5.9300   34.7855 O   0  0  0  0  0  0  0  0  0  0  0  0
    2.1232   -5.4337   30.3155 C   0  0  0  0  0  0  0  0  0  0  0  0
    2.5945   -4.3675   29.3090 C   0  0  0  0  0  0  0  0  0  0  0  0
    2.5839   -4.9446   27.9985 O   0  0  0  0  0  0  0  0  0  0  0  0
    2.7168   -3.9719   26.9697 C   0  0  0  0  0  0  0  0  0  0  0  0
    5.3644   -4.8742   27.7808 H   0  0  0  0  0  0  0  0  0  0  0  0
    4.4640   -6.3139   28.4101 H   0  0  0  0  0  0  0  0  0  0  0  0
    6.1704   -6.1051   28.7534 H   0  0  0  0  0  0  0  0  0  0  0  0
    4.3393   -3.0691   29.0737 H   0  0  0  0  0  0  0  0  0  0  0  0
    3.2080   -2.3043   31.0776 H   0  0  0  0  0  0  0  0  0  0  0  0
    4.7777   -2.9463   31.5575 H   0  0  0  0  0  0  0  0  0  0  0  0
    2.9313   -3.5781   33.1169 H   0  0  0  0  0  0  0  0  0  0  0  0
    3.8341   -4.9366   32.4530 H   0  0  0  0  0  0  0  0  0  0  0  0
    0.9239   -2.9356   30.9940 H   0  0  0  0  0  0  0  0  0  0  0  0
    0.3518   -3.4220   32.5403 H   0  0  0  0  0  0  0  0  0  0  0  0
   -0.4530   -4.4760   29.8065 H   0  0  0  0  0  0  0  0  0  0  0  0
   -1.4489   -3.8814   31.1338 H   0  0  0  0  0  0  0  0  0  0  0  0
   -1.2012   -8.8924   34.2234 H   0  0  0  0  0  0  0  0  0  0  0  0
    0.2130   -8.0442   34.4905 H   0  0  0  0  0  0  0  0  0  0  0  0
    1.9234   -6.8307   32.5609 H   0  0  0  0  0  0  0  0  0  0  0  0
   -0.4493   -4.5324   34.1500 H   0  0  0  0  0  0  0  0  0  0  0  0
    0.8043   -3.8696   35.1692 H   0  0  0  0  0  0  0  0  0  0  0  0
   -1.1711   -6.0863   35.7170 H   0  0  0  0  0  0  0  0  0  0  0  0
   -0.7980   -4.6721   36.6471 H   0  0  0  0  0  0  0  0  0  0  0  0
    0.3134   -7.3668   36.7811 H   0  0  0  0  0  0  0  0  0  0  0  0
    0.2460   -6.1312   38.0184 H   0  0  0  0  0  0  0  0  0  0  0  0
    2.2376   -4.9825   36.9228 H   0  0  0  0  0  0  0  0  0  0  0  0
    4.5482   -5.3417   37.5963 H   0  0  0  0  0  0  0  0  0  0  0  0
    6.0864   -6.5311   39.0998 H   0  0  0  0  0  0  0  0  0  0  0  0
    5.4240   -8.6947   40.1166 H   0  0  0  0  0  0  0  0  0  0  0  0
    3.1961   -9.6629   39.6134 H   0  0  0  0  0  0  0  0  0  0  0  0
    1.6443   -8.5152   38.1242 H   0  0  0  0  0  0  0  0  0  0  0  0
    2.9255   -6.1584   30.4274 H   0  0  0  0  0  0  0  0  0  0  0  0
    1.3012   -6.0088   29.8803 H   0  0  0  0  0  0  0  0  0  0  0  0
    1.8792   -3.5409   29.2822 H   0  0  0  0  0  0  0  0  0  0  0  0
    2.5495   -4.4695   26.0128 H   0  0  0  0  0  0  0  0  0  0  0  0
    1.9792   -3.1765   27.0968 H   0  0  0  0  0  0  0  0  0  0  0  0
    3.7198   -3.5400   26.9552 H   0  0  0  0  0  0  0  0  0  0  0  0
  1  2  1  0
  2  3  1  0
  3  4  1  0
  4  5  1  0
  5  6  1  0
  6  7  1  0
  7  8  1  0
  8  9  1  0
  9 10  2  0
 10 11  1  0
 11 12  2  0
 12 13  1  0
 12 14  1  0
 14 15  1  0
 15 16  1  0
 16 17  1  0
 17 18  1  0
 18 19  1  0
 19 20  1  0
 20 21  1  0
 21 22  2  0
 22 23  1  0
 23 24  2  0
 24 25  1  0
 25 26  2  0
 20 27  1  0
 27 28  2  0
 27 29  2  0
  6 30  1  0
 30 31  1  0
 31 32  1  0
 32 33  1  0
 31  3  1  0
 15  6  1  0
 27 16  1  0
 14  9  1  0
 26 21  1  0
  1 34  1  0
  1 35  1  0
  1 36  1  0
  3 37  1  0
  4 38  1  0
  4 39  1  0
  5 40  1  0
  5 41  1  0
  7 42  1  0
  7 43  1  0
  8 44  1  0
  8 45  1  0
 13 46  1  0
 13 47  1  0
 15 48  1  0
 17 49  1  0
 17 50  1  0
 18 51  1  0
 18 52  1  0
 19 53  1  0
 19 54  1  0
 20 55  1  0
 22 56  1  0
 23 57  1  0
 24 58  1  0
 25 59  1  0
 26 60  1  0
 30 61  1  0
 30 62  1  0
 31 63  1  0
 33 64  1  0
 33 65  1  0
 33 66  1  0
M  END
>  <Energy>  (723) 
51.452900484723941

>  <compound_id>  (723) 
4329

>  <target_id>  (723) 
1

>  <reference_id>  (723) 
201

>  <inspiration_ids>  (723) 
[150, 201]

>  <energy_score>  (723) 
-108.3553192372942

>  <distance_score>  (723) 
1.7355651248326958

>  <path>  (723) 
/opt/xchem-fragalysis-2/maxwin/BulkDock/SCRATCH/505735/C4329-P201/C4329-P201.minimised.mol

>  <scratch_subdir>  (723) 
/opt/xchem-fragalysis-2/maxwin/BulkDock/SCRATCH/505735/C4329-P201

>  <fragmenstein_runtime>  (723) 
7.307923316955566

>  <fragmenstein_outcome>  (723) 
too moved

>  <fragmenstein_mode>  (723) 
expansion

>  <fragmenstein_error>  (723) 


$$$$
C4329-P151
     RDKit          3D

 66 70  0  0  0  0  0  0  0  0999 V2000
  -30.6527   -2.9086   16.5630 C   0  0  0  0  0  0  0  0  0  0  0  0
  -29.7439   -2.0932   15.8370 O   0  0  0  0  0  0  0  0  0  0  0  0
  -28.3762   -2.4982   15.9784 C   0  0  0  0  0  0  0  0  0  0  0  0
  -27.5603   -1.7788   14.9095 C   0  0  0  0  0  0  0  0  0  0  0  0
  -26.0902   -2.2163   14.8667 C   0  0  0  0  0  0  0  0  0  0  0  0
  -25.4802   -2.6100   16.2391 C   0  0  0  0  0  0  0  0  0  0  0  0
  -25.6280   -4.1541   16.4278 C   0  0  0  0  0  0  0  0  0  0  0  0
  -25.1772   -4.5689   17.8220 C   0  0  0  0  0  0  0  0  0  0  0  0
  -23.8217   -4.0363   18.0626 C   0  0  0  0  0  0  0  0  0  0  0  0
  -22.9914   -4.4014   19.0036 N   0  0  0  0  0  0  0  0  0  0  0  0
  -21.7695   -3.9142   18.6601 N   0  0  0  0  0  0  0  0  0  0  0  0
  -21.8701   -3.2240   17.5520 C   0  0  0  0  0  0  0  0  0  0  0  0
  -20.8530   -2.6970   16.8703 N   0  0  0  0  0  0  0  0  0  0  0  0
  -23.2004   -3.1319   17.2353 N   0  0  0  0  0  0  0  0  0  0  0  0
  -23.9108   -2.2734   16.2761 C   0  0  0  0  0  0  0  0  0  0  0  0
  -23.7042   -0.7761   16.4861 N   0  0  0  0  0  0  0  0  0  0  0  0
  -23.3304   -0.4369   17.8894 C   0  0  0  0  0  0  0  0  0  0  0  0
  -23.3152    1.0557   18.1012 C   0  0  0  0  0  0  0  0  0  0  0  0
  -22.1584    1.6522   17.3187 C   0  0  0  0  0  0  0  0  0  0  0  0
  -22.4249    1.6224   15.8177 C   0  0  0  0  0  0  0  0  0  0  0  0
  -21.3305    2.1674   14.9115 C   0  0  0  0  0  0  0  0  0  0  0  0
  -21.6936    3.0374   13.8730 C   0  0  0  0  0  0  0  0  0  0  0  0
  -20.7579    3.4443   12.9241 C   0  0  0  0  0  0  0  0  0  0  0  0
  -19.4439    2.9920   12.9978 C   0  0  0  0  0  0  0  0  0  0  0  0
  -19.0572    2.1479   14.0337 C   0  0  0  0  0  0  0  0  0  0  0  0
  -19.9920    1.7471   14.9901 C   0  0  0  0  0  0  0  0  0  0  0  0
  -22.7591   -0.0788   15.2440 S   0  0  0  0  0  0  0  0  0  0  0  0
  -21.5229   -0.8322   15.2197 O   0  0  0  0  0  0  0  0  0  0  0  0
  -23.5972   -0.0373   14.0660 O   0  0  0  0  0  0  0  0  0  0  0  0
  -26.2802   -1.8741   17.3380 C   0  0  0  0  0  0  0  0  0  0  0  0
  -27.7794   -2.2381   17.3910 C   0  0  0  0  0  0  0  0  0  0  0  0
  -28.4696   -1.1488   18.0291 O   0  0  0  0  0  0  0  0  0  0  0  0
  -28.3704   -1.1585   19.4465 C   0  0  0  0  0  0  0  0  0  0  0  0
  -31.6653   -2.5412   16.3757 H   0  0  0  0  0  0  0  0  0  0  0  0
  -30.5927   -3.9460   16.2202 H   0  0  0  0  0  0  0  0  0  0  0  0
  -30.4630   -2.8590   17.6383 H   0  0  0  0  0  0  0  0  0  0  0  0
  -28.3385   -3.5672   15.7458 H   0  0  0  0  0  0  0  0  0  0  0  0
  -28.0149   -1.9270   13.9217 H   0  0  0  0  0  0  0  0  0  0  0  0
  -27.6158   -0.6956   15.0846 H   0  0  0  0  0  0  0  0  0  0  0  0
  -25.9876   -3.0538   14.1646 H   0  0  0  0  0  0  0  0  0  0  0  0
  -25.5358   -1.3929   14.4148 H   0  0  0  0  0  0  0  0  0  0  0  0
  -26.6441   -4.5178   16.2725 H   0  0  0  0  0  0  0  0  0  0  0  0
  -25.0172   -4.6700   15.6726 H   0  0  0  0  0  0  0  0  0  0  0  0
  -25.8632   -4.2204   18.5996 H   0  0  0  0  0  0  0  0  0  0  0  0
  -25.1806   -5.6611   17.8887 H   0  0  0  0  0  0  0  0  0  0  0  0
  -20.9658   -2.0430   16.0897 H   0  0  0  0  0  0  0  0  0  0  0  0
  -19.9394   -2.6233   17.3102 H   0  0  0  0  0  0  0  0  0  0  0  0
  -23.5001   -2.5818   15.3046 H   0  0  0  0  0  0  0  0  0  0  0  0
  -22.3466   -0.8274   18.1547 H   0  0  0  0  0  0  0  0  0  0  0  0
  -24.0527   -0.8682   18.5863 H   0  0  0  0  0  0  0  0  0  0  0  0
  -24.2682    1.5107   17.8068 H   0  0  0  0  0  0  0  0  0  0  0  0
  -23.1699    1.2647   19.1677 H   0  0  0  0  0  0  0  0  0  0  0  0
  -22.0613    2.6728   17.6746 H   0  0  0  0  0  0  0  0  0  0  0  0
  -21.2260    1.1338   17.5711 H   0  0  0  0  0  0  0  0  0  0  0  0
  -23.3589    2.1681   15.6273 H   0  0  0  0  0  0  0  0  0  0  0  0
  -22.7227    3.3760   13.7627 H   0  0  0  0  0  0  0  0  0  0  0  0
  -21.0592    4.1015   12.1116 H   0  0  0  0  0  0  0  0  0  0  0  0
  -18.7217    3.2958   12.2439 H   0  0  0  0  0  0  0  0  0  0  0  0
  -18.0368    1.7766   14.0767 H   0  0  0  0  0  0  0  0  0  0  0  0
  -19.6870    1.0329   15.7507 H   0  0  0  0  0  0  0  0  0  0  0  0
  -25.8523   -2.0357   18.3317 H   0  0  0  0  0  0  0  0  0  0  0  0
  -26.2010   -0.7891   17.1797 H   0  0  0  0  0  0  0  0  0  0  0  0
  -27.9388   -3.1458   17.9863 H   0  0  0  0  0  0  0  0  0  0  0  0
  -28.9650   -0.3275   19.8354 H   0  0  0  0  0  0  0  0  0  0  0  0
  -28.7717   -2.0913   19.8539 H   0  0  0  0  0  0  0  0  0  0  0  0
  -27.3352   -1.0196   19.7687 H   0  0  0  0  0  0  0  0  0  0  0  0
  1  2  1  0
  2  3  1  0
  3  4  1  0
  4  5  1  0
  5  6  1  0
  6  7  1  0
  7  8  1  0
  8  9  1  0
  9 10  2  0
 10 11  1  0
 11 12  2  0
 12 13  1  0
 12 14  1  0
 14 15  1  0
 15 16  1  0
 16 17  1  0
 17 18  1  0
 18 19  1  0
 19 20  1  0
 20 21  1  0
 21 22  2  0
 22 23  1  0
 23 24  2  0
 24 25  1  0
 25 26  2  0
 20 27  1  0
 27 28  2  0
 27 29  2  0
  6 30  1  0
 30 31  1  0
 31 32  1  0
 32 33  1  0
 31  3  1  0
 15  6  1  0
 27 16  1  0
 14  9  1  0
 26 21  1  0
  1 34  1  0
  1 35  1  0
  1 36  1  0
  3 37  1  0
  4 38  1  0
  4 39  1  0
  5 40  1  0
  5 41  1  0
  7 42  1  0
  7 43  1  0
  8 44  1  0
  8 45  1  0
 13 46  1  0
 13 47  1  0
 15 48  1  0
 17 49  1  0
 17 50  1  0
 18 51  1  0
 18 52  1  0
 19 53  1  0
 19 54  1  0
 20 55  1  0
 22 56  1  0
 23 57  1  0
 24 58  1  0
 25 59  1  0
 26 60  1  0
 30 61  1  0
 30 62  1  0
 31 63  1  0
 33 64  1  0
 33 65  1  0
 33 66  1  0
M  END
>  <Energy>  (724) 
45.509009999987349

>  <compound_id>  (724) 
4329

>  <target_id>  (724) 
1

>  <reference_id>  (724) 
151

>  <inspiration_ids>  (724) 
[151, 18]

>  <energy_score>  (724) 
-92.27852899327871

>  <distance_score>  (724) 
1.5540654132033707

>  <path>  (724) 
/opt/xchem-fragalysis-2/maxwin/BulkDock/SCRATCH/505735/C4329-P151/C4329-P151.minimised.mol

>  <scratch_subdir>  (724) 
/opt/xchem-fragalysis-2/maxwin/BulkDock/SCRATCH/505735/C4329-P151

>  <fragmenstein_runtime>  (724) 
9.96651005744934

>  <fragmenstein_outcome>  (724) 
too moved

>  <fragmenstein_mode>  (724) 
expansion

>  <fragmenstein_error>  (724) 


$$$$
C4329-P18
     RDKit          3D

 66 70  0  0  0  0  0  0  0  0999 V2000
  -29.8411   -4.1902   16.9426 C   0  0  0  0  0  0  0  0  0  0  0  0
  -29.3817   -2.8769   16.6558 O   0  0  0  0  0  0  0  0  0  0  0  0
  -27.9783   -2.8126   16.3698 C   0  0  0  0  0  0  0  0  0  0  0  0
  -27.6856   -1.4459   15.7541 C   0  0  0  0  0  0  0  0  0  0  0  0
  -26.2256   -1.2431   15.3112 C   0  0  0  0  0  0  0  0  0  0  0  0
  -25.1734   -2.0337   16.1350 C   0  0  0  0  0  0  0  0  0  0  0  0
  -24.9433   -3.3991   15.4042 C   0  0  0  0  0  0  0  0  0  0  0  0
  -24.0783   -4.3408   16.2218 C   0  0  0  0  0  0  0  0  0  0  0  0
  -22.9251   -3.6239   16.7942 C   0  0  0  0  0  0  0  0  0  0  0  0
  -21.9292   -4.1516   17.4510 N   0  0  0  0  0  0  0  0  0  0  0  0
  -20.9510   -3.2001   17.5488 N   0  0  0  0  0  0  0  0  0  0  0  0
  -21.4024   -2.0979   17.0062 C   0  0  0  0  0  0  0  0  0  0  0  0
  -20.7113   -0.9761   16.7735 N   0  0  0  0  0  0  0  0  0  0  0  0
  -22.7201   -2.2710   16.6851 N   0  0  0  0  0  0  0  0  0  0  0  0
  -23.7272   -1.3271   16.1676 C   0  0  0  0  0  0  0  0  0  0  0  0
  -23.7435    0.0446   16.7759 N   0  0  0  0  0  0  0  0  0  0  0  0
  -23.6084    0.2367   18.2282 C   0  0  0  0  0  0  0  0  0  0  0  0
  -23.0379    1.6184   18.5896 C   0  0  0  0  0  0  0  0  0  0  0  0
  -21.9070    2.0619   17.6593 C   0  0  0  0  0  0  0  0  0  0  0  0
  -22.3896    2.4241   16.2410 C   0  0  0  0  0  0  0  0  0  0  0  0
  -21.3764    2.4435   15.1014 C   0  0  0  0  0  0  0  0  0  0  0  0
  -21.7737    2.8776   13.8268 C   0  0  0  0  0  0  0  0  0  0  0  0
  -20.9170    2.7901   12.7290 C   0  0  0  0  0  0  0  0  0  0  0  0
  -19.6167    2.3307   12.8923 C   0  0  0  0  0  0  0  0  0  0  0  0
  -19.1703    1.9794   14.1600 C   0  0  0  0  0  0  0  0  0  0  0  0
  -20.0418    2.0524   15.2523 C   0  0  0  0  0  0  0  0  0  0  0  0
  -23.8583    1.3882   15.7797 S   0  0  0  0  0  0  0  0  0  0  0  0
  -23.7874    0.9145   14.4137 O   0  0  0  0  0  0  0  0  0  0  0  0
  -25.0364    2.1100   16.2218 O   0  0  0  0  0  0  0  0  0  0  0  0
  -25.7591   -2.2540   17.5518 C   0  0  0  0  0  0  0  0  0  0  0  0
  -27.0644   -3.0792   17.6005 C   0  0  0  0  0  0  0  0  0  0  0  0
  -27.7522   -2.7416   18.8176 O   0  0  0  0  0  0  0  0  0  0  0  0
  -27.2366   -3.3989   19.9672 C   0  0  0  0  0  0  0  0  0  0  0  0
  -30.9188   -4.1431   17.1212 H   0  0  0  0  0  0  0  0  0  0  0  0
  -29.6609   -4.8525   16.0904 H   0  0  0  0  0  0  0  0  0  0  0  0
  -29.3625   -4.5951   17.8378 H   0  0  0  0  0  0  0  0  0  0  0  0
  -27.7830   -3.5605   15.5950 H   0  0  0  0  0  0  0  0  0  0  0  0
  -28.3529   -1.2659   14.9015 H   0  0  0  0  0  0  0  0  0  0  0  0
  -27.9510   -0.6682   16.4838 H   0  0  0  0  0  0  0  0  0  0  0  0
  -26.1351   -1.4983   14.2475 H   0  0  0  0  0  0  0  0  0  0  0  0
  -26.0471   -0.1698   15.3651 H   0  0  0  0  0  0  0  0  0  0  0  0
  -25.8668   -3.9176   15.1448 H   0  0  0  0  0  0  0  0  0  0  0  0
  -24.4502   -3.2066   14.4399 H   0  0  0  0  0  0  0  0  0  0  0  0
  -23.7259   -5.1536   15.5771 H   0  0  0  0  0  0  0  0  0  0  0  0
  -24.6580   -4.8030   17.0270 H   0  0  0  0  0  0  0  0  0  0  0  0
  -19.7216   -1.0166   17.0450 H   0  0  0  0  0  0  0  0  0  0  0  0
  -20.7676   -0.6009   15.8302 H   0  0  0  0  0  0  0  0  0  0  0  0
  -23.4026   -1.2325   15.1233 H   0  0  0  0  0  0  0  0  0  0  0  0
  -22.9522   -0.5239   18.6589 H   0  0  0  0  0  0  0  0  0  0  0  0
  -24.5817    0.1323   18.7136 H   0  0  0  0  0  0  0  0  0  0  0  0
  -23.8356    2.3710   18.5847 H   0  0  0  0  0  0  0  0  0  0  0  0
  -22.6671    1.5803   19.6211 H   0  0  0  0  0  0  0  0  0  0  0  0
  -21.4036    2.9376   18.0884 H   0  0  0  0  0  0  0  0  0  0  0  0
  -21.1592    1.2699   17.6514 H   0  0  0  0  0  0  0  0  0  0  0  0
  -22.8041    3.4411   16.3024 H   0  0  0  0  0  0  0  0  0  0  0  0
  -22.7855    3.2438   13.6518 H   0  0  0  0  0  0  0  0  0  0  0  0
  -21.2701    3.0856   11.7437 H   0  0  0  0  0  0  0  0  0  0  0  0
  -18.9511    2.2624   12.0357 H   0  0  0  0  0  0  0  0  0  0  0  0
  -18.1493    1.6326   14.2912 H   0  0  0  0  0  0  0  0  0  0  0  0
  -19.6801    1.7754   16.2316 H   0  0  0  0  0  0  0  0  0  0  0  0
  -25.9800   -1.2749   17.9931 H   0  0  0  0  0  0  0  0  0  0  0  0
  -25.0286   -2.7009   18.2342 H   0  0  0  0  0  0  0  0  0  0  0  0
  -26.8423   -4.1533   17.6144 H   0  0  0  0  0  0  0  0  0  0  0  0
  -27.8534   -3.1183   20.8253 H   0  0  0  0  0  0  0  0  0  0  0  0
  -27.2877   -4.4850   19.8450 H   0  0  0  0  0  0  0  0  0  0  0  0
  -26.2078   -3.0892   20.1687 H   0  0  0  0  0  0  0  0  0  0  0  0
  1  2  1  0
  2  3  1  0
  3  4  1  0
  4  5  1  0
  5  6  1  0
  6  7  1  0
  7  8  1  0
  8  9  1  0
  9 10  2  0
 10 11  1  0
 11 12  2  0
 12 13  1  0
 12 14  1  0
 14 15  1  0
 15 16  1  0
 16 17  1  0
 17 18  1  0
 18 19  1  0
 19 20  1  0
 20 21  1  0
 21 22  2  0
 22 23  1  0
 23 24  2  0
 24 25  1  0
 25 26  2  0
 20 27  1  0
 27 28  2  0
 27 29  2  0
  6 30  1  0
 30 31  1  0
 31 32  1  0
 32 33  1  0
 31  3  1  0
 15  6  1  0
 27 16  1  0
 14  9  1  0
 26 21  1  0
  1 34  1  0
  1 35  1  0
  1 36  1  0
  3 37  1  0
  4 38  1  0
  4 39  1  0
  5 40  1  0
  5 41  1  0
  7 42  1  0
  7 43  1  0
  8 44  1  0
  8 45  1  0
 13 46  1  0
 13 47  1  0
 15 48  1  0
 17 49  1  0
 17 50  1  0
 18 51  1  0
 18 52  1  0
 19 53  1  0
 19 54  1  0
 20 55  1  0
 22 56  1  0
 23 57  1  0
 24 58  1  0
 25 59  1  0
 26 60  1  0
 30 61  1  0
 30 62  1  0
 31 63  1  0
 33 64  1  0
 33 65  1  0
 33 66  1  0
M  END
>  <Energy>  (725) 
58.42380670594806

>  <compound_id>  (725) 
4329

>  <target_id>  (725) 
1

>  <reference_id>  (725) 
18

>  <inspiration_ids>  (725) 
[151, 18]

>  <energy_score>  (725) 
-79.36373228731625

>  <distance_score>  (725) 
1.3770925391013182

>  <path>  (725) 
/opt/xchem-fragalysis-2/maxwin/BulkDock/SCRATCH/505735/C4329-P18/C4329-P18.minimised.mol

>  <scratch_subdir>  (725) 
/opt/xchem-fragalysis-2/maxwin/BulkDock/SCRATCH/505735/C4329-P18

>  <fragmenstein_runtime>  (725) 
9.731866121292114

>  <fragmenstein_outcome>  (725) 
too moved

>  <fragmenstein_mode>  (725) 
expansion

>  <fragmenstein_error>  (725) 


$$$$
C3876-P151
     RDKit          3D

 59 63  0  0  0  0  0  0  0  0999 V2000
  -24.2689   -1.4781   22.6257 C   0  0  0  0  0  0  0  0  0  0  0  0
  -24.3120   -0.6766   21.3450 N   0  0  0  0  0  0  0  0  0  0  0  0
  -24.8948   -1.9740   20.8133 C   0  0  0  0  0  0  0  0  0  0  0  0
  -25.1780   -1.9039   19.3084 C   0  0  0  0  0  0  0  0  0  0  0  0
  -24.1523   -2.1466   18.3827 C   0  0  0  0  0  0  0  0  0  0  0  0
  -24.4296   -2.2124   17.0159 C   0  0  0  0  0  0  0  0  0  0  0  0
  -25.7335   -2.0360   16.5580 C   0  0  0  0  0  0  0  0  0  0  0  0
  -26.7601   -1.7827   17.4644 C   0  0  0  0  0  0  0  0  0  0  0  0
  -26.4839   -1.7082   18.8317 C   0  0  0  0  0  0  0  0  0  0  0  0
  -23.0512   -0.0577   21.1087 C   0  0  0  0  0  0  0  0  0  0  0  0
  -22.0888   -0.4472   20.4976 O   0  0  0  0  0  0  0  0  0  0  0  0
  -22.9259    1.2842   21.7714 C   0  0  0  0  0  0  0  0  0  0  0  0
  -22.3785    1.3868   23.1263 C   0  0  0  0  0  0  0  0  0  0  0  0
  -22.0863    2.5743   23.6862 C   0  0  0  0  0  0  0  0  0  0  0  0
  -22.2816    3.7635   22.9404 C   0  0  0  0  0  0  0  0  0  0  0  0
  -22.0293    5.0215   23.2243 N   0  0  0  0  0  0  0  0  0  0  0  0
  -22.3300    5.7651   22.1127 N   0  0  0  0  0  0  0  0  0  0  0  0
  -22.7580    4.9412   21.1807 C   0  0  0  0  0  0  0  0  0  0  0  0
  -22.7659    3.6512   21.6387 N   0  0  0  0  0  0  0  0  0  0  0  0
  -23.0778    2.4150   21.0449 C   0  0  0  0  0  0  0  0  0  0  0  0
  -23.3694    2.1868   19.6591 N   0  0  0  0  0  0  0  0  0  0  0  0
  -22.2198    2.1058   18.7426 C   0  0  0  0  0  0  0  0  0  0  0  0
  -22.5510    1.2875   17.5047 C   0  0  0  0  0  0  0  0  0  0  0  0
  -23.7492    1.8355   16.7308 C   0  0  0  0  0  0  0  0  0  0  0  0
  -25.0286    1.8761   17.5842 C   0  0  0  0  0  0  0  0  0  0  0  0
  -26.2706    2.3772   16.8652 C   0  0  0  0  0  0  0  0  0  0  0  0
  -26.2270    3.3665   15.8706 C   0  0  0  0  0  0  0  0  0  0  0  0
  -27.3965    3.7997   15.2403 C   0  0  0  0  0  0  0  0  0  0  0  0
  -28.6279    3.2583   15.5983 C   0  0  0  0  0  0  0  0  0  0  0  0
  -28.6932    2.2884   16.5935 C   0  0  0  0  0  0  0  0  0  0  0  0
  -27.5255    1.8551   17.2238 C   0  0  0  0  0  0  0  0  0  0  0  0
  -24.7797    2.9074   19.0480 S   0  0  0  0  0  0  0  0  0  0  0  0
  -24.4335    4.2484   18.6247 O   0  0  0  0  0  0  0  0  0  0  0  0
  -25.8310    2.6776   20.0174 O   0  0  0  0  0  0  0  0  0  0  0  0
  -23.4907   -2.2542   22.6457 H   0  0  0  0  0  0  0  0  0  0  0  0
  -23.9546   -0.7797   23.4093 H   0  0  0  0  0  0  0  0  0  0  0  0
  -25.2436   -1.8151   23.0103 H   0  0  0  0  0  0  0  0  0  0  0  0
  -25.8740   -2.2101   21.2607 H   0  0  0  0  0  0  0  0  0  0  0  0
  -24.2035   -2.8305   20.8965 H   0  0  0  0  0  0  0  0  0  0  0  0
  -23.1315   -2.3032   18.7275 H   0  0  0  0  0  0  0  0  0  0  0  0
  -23.6277   -2.4088   16.3093 H   0  0  0  0  0  0  0  0  0  0  0  0
  -25.9504   -2.0926   15.4943 H   0  0  0  0  0  0  0  0  0  0  0  0
  -27.7773   -1.6433   17.1064 H   0  0  0  0  0  0  0  0  0  0  0  0
  -27.3002   -1.5201   19.5262 H   0  0  0  0  0  0  0  0  0  0  0  0
  -22.1650    0.4686   23.6651 H   0  0  0  0  0  0  0  0  0  0  0  0
  -21.6653    2.6472   24.6830 H   0  0  0  0  0  0  0  0  0  0  0  0
  -23.0584    5.2395   20.1911 H   0  0  0  0  0  0  0  0  0  0  0  0
  -21.9430    3.1159   18.4847 H   0  0  0  0  0  0  0  0  0  0  0  0
  -21.3515    1.6602   19.2405 H   0  0  0  0  0  0  0  0  0  0  0  0
  -22.7479    0.2515   17.7939 H   0  0  0  0  0  0  0  0  0  0  0  0
  -21.6772    1.2690   16.8429 H   0  0  0  0  0  0  0  0  0  0  0  0
  -23.9192    1.2076   15.8474 H   0  0  0  0  0  0  0  0  0  0  0  0
  -23.4916    2.8336   16.3618 H   0  0  0  0  0  0  0  0  0  0  0  0
  -25.2252    0.8693   17.9651 H   0  0  0  0  0  0  0  0  0  0  0  0
  -25.2901    3.8341   15.5782 H   0  0  0  0  0  0  0  0  0  0  0  0
  -27.3455    4.5706   14.4753 H   0  0  0  0  0  0  0  0  0  0  0  0
  -29.5365    3.6024   15.1115 H   0  0  0  0  0  0  0  0  0  0  0  0
  -29.6545    1.8762   16.8888 H   0  0  0  0  0  0  0  0  0  0  0  0
  -27.6062    1.1126   18.0156 H   0  0  0  0  0  0  0  0  0  0  0  0
  1  2  1  0
  2  3  1  0
  3  4  1  0
  4  5  2  0
  5  6  1  0
  6  7  2  0
  7  8  1  0
  8  9  2  0
  2 10  1  0
 10 11  2  0
 10 12  1  0
 12 13  1  0
 13 14  2  0
 14 15  1  0
 15 16  2  0
 16 17  1  0
 17 18  2  0
 18 19  1  0
 19 20  1  0
 20 21  1  0
 21 22  1  0
 22 23  1  0
 23 24  1  0
 24 25  1  0
 25 26  1  0
 26 27  2  0
 27 28  1  0
 28 29  2  0
 29 30  1  0
 30 31  2  0
 25 32  1  0
 32 33  2  0
 32 34  2  0
  9  4  1  0
 20 12  2  0
 32 21  1  0
 19 15  1  0
 31 26  1  0
  1 35  1  0
  1 36  1  0
  1 37  1  0
  3 38  1  0
  3 39  1  0
  5 40  1  0
  6 41  1  0
  7 42  1  0
  8 43  1  0
  9 44  1  0
 13 45  1  0
 14 46  1  0
 18 47  1  0
 22 48  1  0
 22 49  1  0
 23 50  1  0
 23 51  1  0
 24 52  1  0
 24 53  1  0
 25 54  1  0
 27 55  1  0
 28 56  1  0
 29 57  1  0
 30 58  1  0
 31 59  1  0
M  END
>  <Energy>  (726) 
138.88661643355022

>  <compound_id>  (726) 
3876

>  <target_id>  (726) 
1

>  <reference_id>  (726) 
151

>  <inspiration_ids>  (726) 
[151, 43]

>  <energy_score>  (726) 
-9.172540457208214

>  <distance_score>  (726) 
3.5576526114860667

>  <path>  (726) 
/opt/xchem-fragalysis-2/maxwin/BulkDock/SCRATCH/505735/C3876-P151/C3876-P151.minimised.mol

>  <scratch_subdir>  (726) 
/opt/xchem-fragalysis-2/maxwin/BulkDock/SCRATCH/505735/C3876-P151

>  <fragmenstein_runtime>  (726) 
10.661320924758911

>  <fragmenstein_outcome>  (726) 
too moved

>  <fragmenstein_mode>  (726) 
expansion

>  <fragmenstein_error>  (726) 


$$$$
C3876-P43
     RDKit          3D

 59 63  0  0  0  0  0  0  0  0999 V2000
  -23.8515   -0.4771   20.6404 C   0  0  0  0  0  0  0  0  0  0  0  0
  -22.8155    0.1843   19.7767 N   0  0  0  0  0  0  0  0  0  0  0  0
  -23.0266   -1.1156   18.9816 C   0  0  0  0  0  0  0  0  0  0  0  0
  -24.2538   -1.5846   18.1686 C   0  0  0  0  0  0  0  0  0  0  0  0
  -24.3548   -2.9738   17.9383 C   0  0  0  0  0  0  0  0  0  0  0  0
  -25.4235   -3.5335   17.2359 C   0  0  0  0  0  0  0  0  0  0  0  0
  -26.4172   -2.7110   16.7276 C   0  0  0  0  0  0  0  0  0  0  0  0
  -26.3209   -1.3320   16.9041 C   0  0  0  0  0  0  0  0  0  0  0  0
  -25.2411   -0.7686   17.6070 C   0  0  0  0  0  0  0  0  0  0  0  0
  -21.6288    0.6576   20.6048 C   0  0  0  0  0  0  0  0  0  0  0  0
  -20.6292    0.1015   20.8932 O   0  0  0  0  0  0  0  0  0  0  0  0
  -21.8116    2.0431   21.1659 C   0  0  0  0  0  0  0  0  0  0  0  0
  -21.8266    2.1802   22.6340 C   0  0  0  0  0  0  0  0  0  0  0  0
  -21.8080    3.3779   23.2486 C   0  0  0  0  0  0  0  0  0  0  0  0
  -21.8146    4.5572   22.4648 C   0  0  0  0  0  0  0  0  0  0  0  0
  -21.8414    5.8319   22.7826 N   0  0  0  0  0  0  0  0  0  0  0  0
  -21.8621    6.5512   21.6119 N   0  0  0  0  0  0  0  0  0  0  0  0
  -21.8195    5.6972   20.6125 C   0  0  0  0  0  0  0  0  0  0  0  0
  -21.7625    4.4155   21.0851 N   0  0  0  0  0  0  0  0  0  0  0  0
  -21.6811    3.1763   20.4391 C   0  0  0  0  0  0  0  0  0  0  0  0
  -21.2670    3.0047   19.0838 N   0  0  0  0  0  0  0  0  0  0  0  0
  -19.9528    3.5423   18.6575 C   0  0  0  0  0  0  0  0  0  0  0  0
  -19.4364    2.7198   17.4826 C   0  0  0  0  0  0  0  0  0  0  0  0
  -20.3818    2.6533   16.2825 C   0  0  0  0  0  0  0  0  0  0  0  0
  -21.7823    2.1462   16.6547 C   0  0  0  0  0  0  0  0  0  0  0  0
  -22.7144    2.0403   15.4638 C   0  0  0  0  0  0  0  0  0  0  0  0
  -23.1700    0.7725   15.0644 C   0  0  0  0  0  0  0  0  0  0  0  0
  -24.0181    0.6274   13.9652 C   0  0  0  0  0  0  0  0  0  0  0  0
  -24.4151    1.7461   13.2392 C   0  0  0  0  0  0  0  0  0  0  0  0
  -23.9639    3.0090   13.6124 C   0  0  0  0  0  0  0  0  0  0  0  0
  -23.1181    3.1557   14.7143 C   0  0  0  0  0  0  0  0  0  0  0  0
  -22.5082    3.2059   17.9236 S   0  0  0  0  0  0  0  0  0  0  0  0
  -22.4519    4.5944   17.5083 O   0  0  0  0  0  0  0  0  0  0  0  0
  -23.7342    2.6388   18.4390 O   0  0  0  0  0  0  0  0  0  0  0  0
  -23.9777    0.2117   21.4901 H   0  0  0  0  0  0  0  0  0  0  0  0
  -23.5302   -1.4012   21.1473 H   0  0  0  0  0  0  0  0  0  0  0  0
  -24.8655   -0.5014   20.2265 H   0  0  0  0  0  0  0  0  0  0  0  0
  -22.5479   -1.9599   19.5123 H   0  0  0  0  0  0  0  0  0  0  0  0
  -22.2868   -0.9550   18.1793 H   0  0  0  0  0  0  0  0  0  0  0  0
  -23.5930   -3.6472   18.3304 H   0  0  0  0  0  0  0  0  0  0  0  0
  -25.4802   -4.6092   17.0920 H   0  0  0  0  0  0  0  0  0  0  0  0
  -27.2571   -3.1340   16.1834 H   0  0  0  0  0  0  0  0  0  0  0  0
  -27.0866   -0.6776   16.4926 H   0  0  0  0  0  0  0  0  0  0  0  0
  -25.1897    0.3129   17.7303 H   0  0  0  0  0  0  0  0  0  0  0  0
  -21.8213    1.2646   23.2209 H   0  0  0  0  0  0  0  0  0  0  0  0
  -21.8103    3.4653   24.3297 H   0  0  0  0  0  0  0  0  0  0  0  0
  -21.8369    5.9552   19.5640 H   0  0  0  0  0  0  0  0  0  0  0  0
  -19.2353    3.4663   19.4834 H   0  0  0  0  0  0  0  0  0  0  0  0
  -20.0252    4.6019   18.3914 H   0  0  0  0  0  0  0  0  0  0  0  0
  -19.2329    1.7090   17.8389 H   0  0  0  0  0  0  0  0  0  0  0  0
  -18.4866    3.1361   17.1453 H   0  0  0  0  0  0  0  0  0  0  0  0
  -19.9417    2.0040   15.5157 H   0  0  0  0  0  0  0  0  0  0  0  0
  -20.4507    3.6514   15.8446 H   0  0  0  0  0  0  0  0  0  0  0  0
  -21.6930    1.1596   17.1255 H   0  0  0  0  0  0  0  0  0  0  0  0
  -22.8757   -0.1222   15.6104 H   0  0  0  0  0  0  0  0  0  0  0  0
  -24.3715   -0.3606   13.6802 H   0  0  0  0  0  0  0  0  0  0  0  0
  -25.0778    1.6348   12.3851 H   0  0  0  0  0  0  0  0  0  0  0  0
  -24.2751    3.8850   13.0483 H   0  0  0  0  0  0  0  0  0  0  0  0
  -22.7932    4.1601   14.9783 H   0  0  0  0  0  0  0  0  0  0  0  0
  1  2  1  0
  2  3  1  0
  3  4  1  0
  4  5  2  0
  5  6  1  0
  6  7  2  0
  7  8  1  0
  8  9  2  0
  2 10  1  0
 10 11  2  0
 10 12  1  0
 12 13  1  0
 13 14  2  0
 14 15  1  0
 15 16  2  0
 16 17  1  0
 17 18  2  0
 18 19  1  0
 19 20  1  0
 20 21  1  0
 21 22  1  0
 22 23  1  0
 23 24  1  0
 24 25  1  0
 25 26  1  0
 26 27  2  0
 27 28  1  0
 28 29  2  0
 29 30  1  0
 30 31  2  0
 25 32  1  0
 32 33  2  0
 32 34  2  0
  9  4  1  0
 20 12  2  0
 32 21  1  0
 19 15  1  0
 31 26  1  0
  1 35  1  0
  1 36  1  0
  1 37  1  0
  3 38  1  0
  3 39  1  0
  5 40  1  0
  6 41  1  0
  7 42  1  0
  8 43  1  0
  9 44  1  0
 13 45  1  0
 14 46  1  0
 18 47  1  0
 22 48  1  0
 22 49  1  0
 23 50  1  0
 23 51  1  0
 24 52  1  0
 24 53  1  0
 25 54  1  0
 27 55  1  0
 28 56  1  0
 29 57  1  0
 30 58  1  0
 31 59  1  0
M  END
>  <Energy>  (727) 
161.437446547066

>  <compound_id>  (727) 
3876

>  <target_id>  (727) 
1

>  <reference_id>  (727) 
43

>  <inspiration_ids>  (727) 
[151, 43]

>  <energy_score>  (727) 
29.874713943402526

>  <distance_score>  (727) 
2.0881848934575578

>  <path>  (727) 
/opt/xchem-fragalysis-2/maxwin/BulkDock/SCRATCH/505735/C3876-P43/C3876-P43.minimised.mol

>  <scratch_subdir>  (727) 
/opt/xchem-fragalysis-2/maxwin/BulkDock/SCRATCH/505735/C3876-P43

>  <fragmenstein_runtime>  (727) 
8.022220611572266

>  <fragmenstein_outcome>  (727) 
too moved

>  <fragmenstein_mode>  (727) 
expansion

>  <fragmenstein_error>  (727) 


$$$$
C3876-P151
     RDKit          2D

  0  0  0  0  0  0  0  0  0  0999 V2000
M  END
>  <compound_id>  (728) 
3876

>  <target_id>  (728) 
1

>  <reference_id>  (728) 
151

>  <inspiration_ids>  (728) 
[151, 100]

>  <energy_score>  (728) 
nan

>  <distance_score>  (728) 
nan

>  <path>  (728) 
/opt/xchem-fragalysis-2/maxwin/BulkDock/SCRATCH/505735/C3876-P151/C3876-P151.minimised.mol

>  <scratch_subdir>  (728) 
/opt/xchem-fragalysis-2/maxwin/BulkDock/SCRATCH/505735/C3876-P151

>  <fragmenstein_runtime>  (728) 
1.3163983821868896

>  <fragmenstein_outcome>  (728) 
too distant

>  <fragmenstein_mode>  (728) 
expansion

>  <fragmenstein_error>  (728) 
DistanceError: hit0

$$$$
C4330-P151
     RDKit          3D

 65 69  0  0  0  0  0  0  0  0999 V2000
  -28.3328   -4.0096   13.3419 C   0  0  0  0  0  0  0  0  0  0  0  0
  -27.0294   -3.4486   13.1303 N   0  0  0  0  0  0  0  0  0  0  0  0
  -26.4101   -2.9323   11.9479 C   0  0  0  0  0  0  0  0  0  0  0  0
  -26.8477   -2.7629   10.8467 O   0  0  0  0  0  0  0  0  0  0  0  0
  -24.9509   -2.5061   12.2211 C   0  0  0  0  0  0  0  0  0  0  0  0
  -24.8505   -1.2847   13.1483 C   0  0  0  0  0  0  0  0  0  0  0  0
  -24.4402   -1.5902   14.5905 C   0  0  0  0  0  0  0  0  0  0  0  0
  -23.1977   -2.5211   14.7516 C   0  0  0  0  0  0  0  0  0  0  0  0
  -23.5648   -3.6814   15.7410 C   0  0  0  0  0  0  0  0  0  0  0  0
  -23.9525   -3.1986   17.1326 C   0  0  0  0  0  0  0  0  0  0  0  0
  -23.0814   -2.1016   17.5978 C   0  0  0  0  0  0  0  0  0  0  0  0
  -23.0514   -1.6038   18.8115 N   0  0  0  0  0  0  0  0  0  0  0  0
  -22.1280   -0.5954   18.8198 N   0  0  0  0  0  0  0  0  0  0  0  0
  -21.5918   -0.5188   17.6246 C   0  0  0  0  0  0  0  0  0  0  0  0
  -20.5927    0.2909   17.2517 N   0  0  0  0  0  0  0  0  0  0  0  0
  -22.1961   -1.4164   16.7896 N   0  0  0  0  0  0  0  0  0  0  0  0
  -21.9265   -1.7892   15.3840 C   0  0  0  0  0  0  0  0  0  0  0  0
  -21.3166   -0.7868   14.4040 N   0  0  0  0  0  0  0  0  0  0  0  0
  -21.8403    0.5999   14.4578 C   0  0  0  0  0  0  0  0  0  0  0  0
  -20.7908    1.6669   14.1530 C   0  0  0  0  0  0  0  0  0  0  0  0
  -20.1023    1.4123   12.8173 C   0  0  0  0  0  0  0  0  0  0  0  0
  -19.2403    0.1430   12.7757 C   0  0  0  0  0  0  0  0  0  0  0  0
  -17.7360    0.4435   12.7564 C   0  0  0  0  0  0  0  0  0  0  0  0
  -16.9769    0.0787   11.6300 C   0  0  0  0  0  0  0  0  0  0  0  0
  -15.6088    0.3578   11.5419 C   0  0  0  0  0  0  0  0  0  0  0  0
  -14.9721    1.0415   12.5701 C   0  0  0  0  0  0  0  0  0  0  0  0
  -15.7061    1.4430   13.6830 C   0  0  0  0  0  0  0  0  0  0  0  0
  -17.0742    1.1485   13.7760 C   0  0  0  0  0  0  0  0  0  0  0  0
  -19.6527   -1.0438   14.1005 S   0  0  0  0  0  0  0  0  0  0  0  0
  -19.5555   -2.4022   13.6047 O   0  0  0  0  0  0  0  0  0  0  0  0
  -18.9794   -0.6760   15.3267 O   0  0  0  0  0  0  0  0  0  0  0  0
  -22.8260   -3.1816   13.4001 C   0  0  0  0  0  0  0  0  0  0  0  0
  -24.0528   -3.6753   12.6350 C   0  0  0  0  0  0  0  0  0  0  0  0
  -28.2145   -5.0280   13.7186 H   0  0  0  0  0  0  0  0  0  0  0  0
  -28.8903   -4.0181   12.4026 H   0  0  0  0  0  0  0  0  0  0  0  0
  -28.8551   -3.4020   14.0841 H   0  0  0  0  0  0  0  0  0  0  0  0
  -26.3824   -3.3717   13.9005 H   0  0  0  0  0  0  0  0  0  0  0  0
  -24.5790   -2.1629   11.2428 H   0  0  0  0  0  0  0  0  0  0  0  0
  -24.1038   -0.6061   12.7198 H   0  0  0  0  0  0  0  0  0  0  0  0
  -25.7921   -0.7219   13.1515 H   0  0  0  0  0  0  0  0  0  0  0  0
  -25.3134   -2.0367   15.0780 H   0  0  0  0  0  0  0  0  0  0  0  0
  -24.2863   -0.6416   15.1163 H   0  0  0  0  0  0  0  0  0  0  0  0
  -24.3838   -4.2979   15.3549 H   0  0  0  0  0  0  0  0  0  0  0  0
  -22.6988   -4.3506   15.8331 H   0  0  0  0  0  0  0  0  0  0  0  0
  -24.9923   -2.8530   17.1413 H   0  0  0  0  0  0  0  0  0  0  0  0
  -23.8999   -4.0373   17.8362 H   0  0  0  0  0  0  0  0  0  0  0  0
  -19.8761   -0.1397   16.6504 H   0  0  0  0  0  0  0  0  0  0  0  0
  -20.0192    0.6289   18.0326 H   0  0  0  0  0  0  0  0  0  0  0  0
  -21.1758   -2.5831   15.5210 H   0  0  0  0  0  0  0  0  0  0  0  0
  -22.6190    0.6770   13.6926 H   0  0  0  0  0  0  0  0  0  0  0  0
  -22.3284    0.8350   15.4043 H   0  0  0  0  0  0  0  0  0  0  0  0
  -20.0520    1.7420   14.9567 H   0  0  0  0  0  0  0  0  0  0  0  0
  -21.2931    2.6412   14.1103 H   0  0  0  0  0  0  0  0  0  0  0  0
  -19.5159    2.2951   12.5337 H   0  0  0  0  0  0  0  0  0  0  0  0
  -20.8804    1.3244   12.0466 H   0  0  0  0  0  0  0  0  0  0  0  0
  -19.4959   -0.3949   11.8524 H   0  0  0  0  0  0  0  0  0  0  0  0
  -17.4460   -0.4225   10.7876 H   0  0  0  0  0  0  0  0  0  0  0  0
  -15.0487    0.0451   10.6624 H   0  0  0  0  0  0  0  0  0  0  0  0
  -13.9123    1.2725   12.4986 H   0  0  0  0  0  0  0  0  0  0  0  0
  -15.2086    1.9983   14.4728 H   0  0  0  0  0  0  0  0  0  0  0  0
  -17.6189    1.4871   14.6527 H   0  0  0  0  0  0  0  0  0  0  0  0
  -22.2925   -2.4736   12.7548 H   0  0  0  0  0  0  0  0  0  0  0  0
  -22.1380   -4.0205   13.5626 H   0  0  0  0  0  0  0  0  0  0  0  0
  -23.7198   -4.1978   11.7286 H   0  0  0  0  0  0  0  0  0  0  0  0
  -24.5928   -4.4313   13.2120 H   0  0  0  0  0  0  0  0  0  0  0  0
  1  2  1  0
  2  3  1  0
  3  4  2  0
  3  5  1  0
  5  6  1  0
  6  7  1  0
  7  8  1  0
  8  9  1  0
  9 10  1  0
 10 11  1  0
 11 12  2  0
 12 13  1  0
 13 14  2  0
 14 15  1  0
 14 16  1  0
 16 17  1  0
 17 18  1  0
 18 19  1  0
 19 20  1  0
 20 21  1  0
 21 22  1  0
 22 23  1  0
 23 24  2  0
 24 25  1  0
 25 26  2  0
 26 27  1  0
 27 28  2  0
 22 29  1  0
 29 30  2  0
 29 31  2  0
  8 32  1  0
 32 33  1  0
 33  5  1  0
 17  8  1  0
 29 18  1  0
 16 11  1  0
 28 23  1  0
  1 34  1  0
  1 35  1  0
  1 36  1  0
  2 37  1  0
  5 38  1  0
  6 39  1  0
  6 40  1  0
  7 41  1  0
  7 42  1  0
  9 43  1  0
  9 44  1  0
 10 45  1  0
 10 46  1  0
 15 47  1  0
 15 48  1  0
 17 49  1  0
 19 50  1  0
 19 51  1  0
 20 52  1  0
 20 53  1  0
 21 54  1  0
 21 55  1  0
 22 56  1  0
 24 57  1  0
 25 58  1  0
 26 59  1  0
 27 60  1  0
 28 61  1  0
 32 62  1  0
 32 63  1  0
 33 64  1  0
 33 65  1  0
M  END
>  <Energy>  (729) 
-3.2198408985885316

>  <compound_id>  (729) 
4330

>  <target_id>  (729) 
1

>  <reference_id>  (729) 
151

>  <inspiration_ids>  (729) 
[151, 126]

>  <energy_score>  (729) 
-99.71672747495

>  <distance_score>  (729) 
3.2297236235709934

>  <path>  (729) 
/opt/xchem-fragalysis-2/maxwin/BulkDock/SCRATCH/505735/C4330-P151/C4330-P151.minimised.mol

>  <scratch_subdir>  (729) 
/opt/xchem-fragalysis-2/maxwin/BulkDock/SCRATCH/505735/C4330-P151

>  <fragmenstein_runtime>  (729) 
25.130719661712646

>  <fragmenstein_outcome>  (729) 
too moved

>  <fragmenstein_mode>  (729) 
expansion

>  <fragmenstein_error>  (729) 


$$$$
C4330-P126
     RDKit          3D

 65 69  0  0  0  0  0  0  0  0999 V2000
  -29.0246   -4.2642   14.5420 C   0  0  0  0  0  0  0  0  0  0  0  0
  -28.0880   -3.1865   14.6703 N   0  0  0  0  0  0  0  0  0  0  0  0
  -26.8057   -2.8645   13.8582 C   0  0  0  0  0  0  0  0  0  0  0  0
  -26.2751   -3.4684   13.0125 O   0  0  0  0  0  0  0  0  0  0  0  0
  -26.2701   -1.5215   14.3981 C   0  0  0  0  0  0  0  0  0  0  0  0
  -25.8030   -1.5899   15.8515 C   0  0  0  0  0  0  0  0  0  0  0  0
  -24.2900   -1.3506   16.0357 C   0  0  0  0  0  0  0  0  0  0  0  0
  -23.3578   -2.0637   14.9865 C   0  0  0  0  0  0  0  0  0  0  0  0
  -23.6927   -3.6302   14.9893 C   0  0  0  0  0  0  0  0  0  0  0  0
  -22.8684   -4.4981   15.9376 C   0  0  0  0  0  0  0  0  0  0  0  0
  -22.3037   -3.6793   17.0193 C   0  0  0  0  0  0  0  0  0  0  0  0
  -22.4958   -3.7877   18.3095 N   0  0  0  0  0  0  0  0  0  0  0  0
  -22.0444   -2.6164   18.8663 N   0  0  0  0  0  0  0  0  0  0  0  0
  -21.5764   -1.8386   17.9121 C   0  0  0  0  0  0  0  0  0  0  0  0
  -21.1315   -0.5753   18.0359 N   0  0  0  0  0  0  0  0  0  0  0  0
  -21.6691   -2.4869   16.7174 N   0  0  0  0  0  0  0  0  0  0  0  0
  -21.7558   -1.9662   15.3245 C   0  0  0  0  0  0  0  0  0  0  0  0
  -20.8255   -0.7718   14.9495 N   0  0  0  0  0  0  0  0  0  0  0  0
  -21.4099    0.5153   14.5999 C   0  0  0  0  0  0  0  0  0  0  0  0
  -20.4854    1.6284   15.0883 C   0  0  0  0  0  0  0  0  0  0  0  0
  -19.0160    1.5839   14.6275 C   0  0  0  0  0  0  0  0  0  0  0  0
  -18.6143    0.4984   13.6206 C   0  0  0  0  0  0  0  0  0  0  0  0
  -17.0849    0.4731   13.2351 C   0  0  0  0  0  0  0  0  0  0  0  0
  -16.6621   -0.2032   12.0747 C   0  0  0  0  0  0  0  0  0  0  0  0
  -15.3478   -0.0935   11.5683 C   0  0  0  0  0  0  0  0  0  0  0  0
  -14.3984    0.6930   12.2130 C   0  0  0  0  0  0  0  0  0  0  0  0
  -14.7697    1.3686   13.3691 C   0  0  0  0  0  0  0  0  0  0  0  0
  -16.0910    1.2644   13.8661 C   0  0  0  0  0  0  0  0  0  0  0  0
  -19.3568   -1.1557   14.0775 S   0  0  0  0  0  0  0  0  0  0  0  0
  -19.8089   -1.7958   12.8615 O   0  0  0  0  0  0  0  0  0  0  0  0
  -18.5025   -1.8712   14.9919 O   0  0  0  0  0  0  0  0  0  0  0  0
  -23.7785   -1.5689   13.5946 C   0  0  0  0  0  0  0  0  0  0  0  0
  -25.1812   -0.9430   13.5046 C   0  0  0  0  0  0  0  0  0  0  0  0
  -29.0417   -4.8227   15.4803 H   0  0  0  0  0  0  0  0  0  0  0  0
  -28.7216   -4.9166   13.7204 H   0  0  0  0  0  0  0  0  0  0  0  0
  -30.0132   -3.8439   14.3451 H   0  0  0  0  0  0  0  0  0  0  0  0
  -28.2212   -2.4821   15.3865 H   0  0  0  0  0  0  0  0  0  0  0  0
  -27.1248   -0.8317   14.3410 H   0  0  0  0  0  0  0  0  0  0  0  0
  -26.3299   -0.8191   16.4295 H   0  0  0  0  0  0  0  0  0  0  0  0
  -26.0803   -2.5392   16.3241 H   0  0  0  0  0  0  0  0  0  0  0  0
  -24.0704   -1.6489   17.0621 H   0  0  0  0  0  0  0  0  0  0  0  0
  -24.1037   -0.2709   16.0024 H   0  0  0  0  0  0  0  0  0  0  0  0
  -24.7442   -3.8111   15.2170 H   0  0  0  0  0  0  0  0  0  0  0  0
  -23.5461   -4.0572   13.9884 H   0  0  0  0  0  0  0  0  0  0  0  0
  -23.4953   -5.3011   16.3335 H   0  0  0  0  0  0  0  0  0  0  0  0
  -22.0526   -4.9633   15.3785 H   0  0  0  0  0  0  0  0  0  0  0  0
  -20.1681   -0.4873   17.6633 H   0  0  0  0  0  0  0  0  0  0  0  0
  -21.0626   -0.3025   19.0099 H   0  0  0  0  0  0  0  0  0  0  0  0
  -21.3103   -2.7857   14.7390 H   0  0  0  0  0  0  0  0  0  0  0  0
  -21.5494    0.5987   13.5176 H   0  0  0  0  0  0  0  0  0  0  0  0
  -22.3830    0.6480   15.0744 H   0  0  0  0  0  0  0  0  0  0  0  0
  -20.4937    1.6409   16.1858 H   0  0  0  0  0  0  0  0  0  0  0  0
  -20.9284    2.5836   14.7876 H   0  0  0  0  0  0  0  0  0  0  0  0
  -18.3761    1.5627   15.5113 H   0  0  0  0  0  0  0  0  0  0  0  0
  -18.7643    2.5509   14.1869 H   0  0  0  0  0  0  0  0  0  0  0  0
  -19.1364    0.7514   12.6852 H   0  0  0  0  0  0  0  0  0  0  0  0
  -17.3720   -0.8116   11.5159 H   0  0  0  0  0  0  0  0  0  0  0  0
  -15.0803   -0.6312   10.6600 H   0  0  0  0  0  0  0  0  0  0  0  0
  -13.3894    0.7768   11.8200 H   0  0  0  0  0  0  0  0  0  0  0  0
  -14.0443    1.9998   13.8808 H   0  0  0  0  0  0  0  0  0  0  0  0
  -16.3282    1.8580   14.7438 H   0  0  0  0  0  0  0  0  0  0  0  0
  -23.0782   -0.8239   13.2168 H   0  0  0  0  0  0  0  0  0  0  0  0
  -23.7107   -2.3703   12.8489 H   0  0  0  0  0  0  0  0  0  0  0  0
  -25.5027   -0.9630   12.4549 H   0  0  0  0  0  0  0  0  0  0  0  0
  -25.0800    0.1240   13.7500 H   0  0  0  0  0  0  0  0  0  0  0  0
  1  2  1  0
  2  3  1  0
  3  4  2  0
  3  5  1  0
  5  6  1  0
  6  7  1  0
  7  8  1  0
  8  9  1  0
  9 10  1  0
 10 11  1  0
 11 12  2  0
 12 13  1  0
 13 14  2  0
 14 15  1  0
 14 16  1  0
 16 17  1  0
 17 18  1  0
 18 19  1  0
 19 20  1  0
 20 21  1  0
 21 22  1  0
 22 23  1  0
 23 24  2  0
 24 25  1  0
 25 26  2  0
 26 27  1  0
 27 28  2  0
 22 29  1  0
 29 30  2  0
 29 31  2  0
  8 32  1  0
 32 33  1  0
 33  5  1  0
 17  8  1  0
 29 18  1  0
 16 11  1  0
 28 23  1  0
  1 34  1  0
  1 35  1  0
  1 36  1  0
  2 37  1  0
  5 38  1  0
  6 39  1  0
  6 40  1  0
  7 41  1  0
  7 42  1  0
  9 43  1  0
  9 44  1  0
 10 45  1  0
 10 46  1  0
 15 47  1  0
 15 48  1  0
 17 49  1  0
 19 50  1  0
 19 51  1  0
 20 52  1  0
 20 53  1  0
 21 54  1  0
 21 55  1  0
 22 56  1  0
 24 57  1  0
 25 58  1  0
 26 59  1  0
 27 60  1  0
 28 61  1  0
 32 62  1  0
 32 63  1  0
 33 64  1  0
 33 65  1  0
M  END
>  <Energy>  (730) 
44.58054052220993

>  <compound_id>  (730) 
4330

>  <target_id>  (730) 
1

>  <reference_id>  (730) 
126

>  <inspiration_ids>  (730) 
[151, 126]

>  <energy_score>  (730) 
-166.4017024298783

>  <distance_score>  (730) 
2.5705797910167214

>  <path>  (730) 
/opt/xchem-fragalysis-2/maxwin/BulkDock/SCRATCH/505735/C4330-P126/C4330-P126.minimised.mol

>  <scratch_subdir>  (730) 
/opt/xchem-fragalysis-2/maxwin/BulkDock/SCRATCH/505735/C4330-P126

>  <fragmenstein_runtime>  (730) 
22.204593896865845

>  <fragmenstein_outcome>  (730) 
too moved

>  <fragmenstein_mode>  (730) 
expansion

>  <fragmenstein_error>  (730) 


$$$$
C4050-P151
     RDKit          3D

 70 75  0  0  0  0  0  0  0  0999 V2000
  -21.8050   -2.8533   12.7704 O   0  0  0  0  0  0  0  0  0  0  0  0
  -21.9203   -1.8407   13.4496 C   0  0  0  0  0  0  0  0  0  0  0  0
  -20.6892   -1.1005   13.8891 C   0  0  0  0  0  0  0  0  0  0  0  0
  -19.6024   -1.9232   14.4376 C   0  0  0  0  0  0  0  0  0  0  0  0
  -18.4199   -1.3961   14.7974 C   0  0  0  0  0  0  0  0  0  0  0  0
  -18.2032   -0.0048   14.6689 C   0  0  0  0  0  0  0  0  0  0  0  0
  -17.1798    0.7642   14.9802 N   0  0  0  0  0  0  0  0  0  0  0  0
  -17.5047    2.0514   14.6399 N   0  0  0  0  0  0  0  0  0  0  0  0
  -18.7043    2.0278   14.1005 C   0  0  0  0  0  0  0  0  0  0  0  0
  -19.2295    0.7622   14.1381 N   0  0  0  0  0  0  0  0  0  0  0  0
  -20.4682    0.2284   13.7429 C   0  0  0  0  0  0  0  0  0  0  0  0
  -21.5200    0.9851   13.1249 N   0  0  0  0  0  0  0  0  0  0  0  0
  -21.3449    1.4452   11.7294 C   0  0  0  0  0  0  0  0  0  0  0  0
  -22.7189    1.6575   11.0909 C   0  0  0  0  0  0  0  0  0  0  0  0
  -23.5647    2.7073   11.8224 C   0  0  0  0  0  0  0  0  0  0  0  0
  -23.8355    2.3147   13.2832 C   0  0  0  0  0  0  0  0  0  0  0  0
  -24.6982    3.2902   14.0611 C   0  0  0  0  0  0  0  0  0  0  0  0
  -24.4955    4.6782   14.0129 C   0  0  0  0  0  0  0  0  0  0  0  0
  -25.3009    5.5432   14.7568 C   0  0  0  0  0  0  0  0  0  0  0  0
  -26.3176    5.0353   15.5612 C   0  0  0  0  0  0  0  0  0  0  0  0
  -26.5280    3.6611   15.6270 C   0  0  0  0  0  0  0  0  0  0  0  0
  -25.7235    2.7952   14.8848 C   0  0  0  0  0  0  0  0  0  0  0  0
  -22.2744    2.1119   14.1710 S   0  0  0  0  0  0  0  0  0  0  0  0
  -22.4960    1.4561   15.4441 O   0  0  0  0  0  0  0  0  0  0  0  0
  -21.5103    3.3403   14.0846 O   0  0  0  0  0  0  0  0  0  0  0  0
  -23.1174   -1.3155   13.8706 N   0  0  0  0  0  0  0  0  0  0  0  0
  -23.4714   -2.0542   15.5030 C   0  0  0  0  0  0  0  0  0  0  0  0
  -23.8907   -3.6962   15.5086 C   0  0  0  0  0  0  0  0  0  0  0  0
  -25.1590   -3.7677   14.7088 C   0  0  0  0  0  0  0  0  0  0  0  0
  -25.5206   -2.3039   14.5879 C   0  0  0  0  0  0  0  0  0  0  0  0
  -26.6811   -1.8263   15.4354 C   0  0  0  0  0  0  0  0  0  0  0  0
  -26.9029   -2.2796   16.7401 C   0  0  0  0  0  0  0  0  0  0  0  0
  -27.9813   -1.7975   17.4861 C   0  0  0  0  0  0  0  0  0  0  0  0
  -28.8494   -0.8380   16.9519 C   0  0  0  0  0  0  0  0  0  0  0  0
  -30.0220   -0.3442   17.7554 C   0  0  0  0  0  0  0  0  0  0  0  0
  -31.0907   -1.2790   17.7053 O   0  0  0  0  0  0  0  0  0  0  0  0
  -28.6354   -0.3870   15.6465 C   0  0  0  0  0  0  0  0  0  0  0  0
  -27.5601   -0.8723   14.8999 C   0  0  0  0  0  0  0  0  0  0  0  0
  -24.0147   -1.4683   15.0492 C   0  0  0  0  0  0  0  0  0  0  0  0
  -19.7737   -2.9938   14.5206 H   0  0  0  0  0  0  0  0  0  0  0  0
  -17.6086   -2.0028   15.1732 H   0  0  0  0  0  0  0  0  0  0  0  0
  -19.2157    2.8826   13.6879 H   0  0  0  0  0  0  0  0  0  0  0  0
  -20.7458    2.3613   11.6933 H   0  0  0  0  0  0  0  0  0  0  0  0
  -20.8066    0.6812   11.1558 H   0  0  0  0  0  0  0  0  0  0  0  0
  -23.2652    0.7061   11.0689 H   0  0  0  0  0  0  0  0  0  0  0  0
  -22.5835    1.9714   10.0494 H   0  0  0  0  0  0  0  0  0  0  0  0
  -23.0474    3.6720   11.7592 H   0  0  0  0  0  0  0  0  0  0  0  0
  -24.5184    2.8270   11.2937 H   0  0  0  0  0  0  0  0  0  0  0  0
  -24.3186    1.3313   13.2916 H   0  0  0  0  0  0  0  0  0  0  0  0
  -23.6954    5.1102   13.4150 H   0  0  0  0  0  0  0  0  0  0  0  0
  -25.1261    6.6158   14.7155 H   0  0  0  0  0  0  0  0  0  0  0  0
  -26.9381    5.7108   16.1440 H   0  0  0  0  0  0  0  0  0  0  0  0
  -27.3131    3.2611   16.2636 H   0  0  0  0  0  0  0  0  0  0  0  0
  -25.8992    1.7251   14.9685 H   0  0  0  0  0  0  0  0  0  0  0  0
  -22.3651   -2.4277   15.5768 H   0  0  0  0  0  0  0  0  0  0  0  0
  -23.1017   -1.6171   16.5910 H   0  0  0  0  0  0  0  0  0  0  0  0
  -24.0494   -3.9967   16.5500 H   0  0  0  0  0  0  0  0  0  0  0  0
  -23.0963   -4.3095   15.0680 H   0  0  0  0  0  0  0  0  0  0  0  0
  -25.9222   -4.4065   15.1619 H   0  0  0  0  0  0  0  0  0  0  0  0
  -24.9367   -4.1783   13.7165 H   0  0  0  0  0  0  0  0  0  0  0  0
  -25.7200   -2.0811   13.5286 H   0  0  0  0  0  0  0  0  0  0  0  0
  -26.2529   -3.0205   17.1974 H   0  0  0  0  0  0  0  0  0  0  0  0
  -28.1439   -2.1753   18.4942 H   0  0  0  0  0  0  0  0  0  0  0  0
  -30.3839    0.6154   17.3718 H   0  0  0  0  0  0  0  0  0  0  0  0
  -29.7370   -0.1907   18.8015 H   0  0  0  0  0  0  0  0  0  0  0  0
  -30.8887   -1.9248   17.0064 H   0  0  0  0  0  0  0  0  0  0  0  0
  -29.3063    0.3440   15.1991 H   0  0  0  0  0  0  0  0  0  0  0  0
  -27.4180   -0.5007   13.8862 H   0  0  0  0  0  0  0  0  0  0  0  0
  -24.2393   -0.4839   15.7970 H   0  0  0  0  0  0  0  0  0  0  0  0
  -24.5546   -0.6094   14.4754 H   0  0  0  0  0  0  0  0  0  0  0  0
  1  2  2  0
  2  3  1  0
  3  4  1  0
  4  5  2  0
  5  6  1  0
  6  7  2  0
  7  8  1  0
  8  9  2  0
  9 10  1  0
 10 11  1  0
 11 12  1  0
 12 13  1  0
 13 14  1  0
 14 15  1  0
 15 16  1  0
 16 17  1  0
 17 18  2  0
 18 19  1  0
 19 20  2  0
 20 21  1  0
 21 22  2  0
 16 23  1  0
 23 24  2  0
 23 25  2  0
  2 26  1  0
 26 27  1  0
 27 28  1  0
 28 29  1  0
 29 30  1  0
 30 31  1  0
 31 32  2  0
 32 33  1  0
 33 34  2  0
 34 35  1  0
 35 36  1  0
 34 37  1  0
 37 38  2  0
 30 39  1  0
 11  3  2  0
 23 12  1  0
 39 26  1  0
 10  6  1  0
 22 17  1  0
 38 31  1  0
  4 40  1  0
  5 41  1  0
  9 42  1  0
 13 43  1  0
 13 44  1  0
 14 45  1  0
 14 46  1  0
 15 47  1  0
 15 48  1  0
 16 49  1  0
 18 50  1  0
 19 51  1  0
 20 52  1  0
 21 53  1  0
 22 54  1  0
 27 55  1  0
 27 56  1  0
 28 57  1  0
 28 58  1  0
 29 59  1  0
 29 60  1  0
 30 61  1  0
 32 62  1  0
 33 63  1  0
 35 64  1  0
 35 65  1  0
 36 66  1  0
 37 67  1  0
 38 68  1  0
 39 69  1  0
 39 70  1  0
M  END
>  <Energy>  (731) 
639.76453582696058

>  <compound_id>  (731) 
4050

>  <target_id>  (731) 
1

>  <reference_id>  (731) 
151

>  <inspiration_ids>  (731) 
[151, 137]

>  <energy_score>  (731) 
475.06461389322317

>  <distance_score>  (731) 
2.7018305866441494

>  <path>  (731) 
/opt/xchem-fragalysis-2/maxwin/BulkDock/SCRATCH/505735/C4050-P151/C4050-P151.minimised.mol

>  <scratch_subdir>  (731) 
/opt/xchem-fragalysis-2/maxwin/BulkDock/SCRATCH/505735/C4050-P151

>  <fragmenstein_runtime>  (731) 
27.770629405975342

>  <fragmenstein_outcome>  (731) 
too moved

>  <fragmenstein_mode>  (731) 
expansion

>  <fragmenstein_error>  (731) 


$$$$
C4050-P137
     RDKit          3D

 70 75  0  0  0  0  0  0  0  0999 V2000
  -22.2832    1.9189   16.1877 O   0  0  0  0  0  0  0  0  0  0  0  0
  -22.3420    0.7789   16.6240 C   0  0  0  0  0  0  0  0  0  0  0  0
  -21.5579   -0.3673   16.0340 C   0  0  0  0  0  0  0  0  0  0  0  0
  -20.9581   -1.3561   16.9411 C   0  0  0  0  0  0  0  0  0  0  0  0
  -20.3218   -2.4512   16.4935 C   0  0  0  0  0  0  0  0  0  0  0  0
  -20.1970   -2.6643   15.0997 C   0  0  0  0  0  0  0  0  0  0  0  0
  -19.6943   -3.6565   14.3988 N   0  0  0  0  0  0  0  0  0  0  0  0
  -19.8617   -3.3536   13.0725 N   0  0  0  0  0  0  0  0  0  0  0  0
  -20.4248   -2.1675   12.9981 C   0  0  0  0  0  0  0  0  0  0  0  0
  -20.6920   -1.6841   14.2506 N   0  0  0  0  0  0  0  0  0  0  0  0
  -21.3646   -0.5376   14.7035 C   0  0  0  0  0  0  0  0  0  0  0  0
  -21.9631    0.4433   13.8461 N   0  0  0  0  0  0  0  0  0  0  0  0
  -23.0944    0.0630   12.9749 C   0  0  0  0  0  0  0  0  0  0  0  0
  -23.9186    1.3111   12.6620 C   0  0  0  0  0  0  0  0  0  0  0  0
  -23.1151    2.3745   11.9057 C   0  0  0  0  0  0  0  0  0  0  0  0
  -21.8907    2.8644   12.6961 C   0  0  0  0  0  0  0  0  0  0  0  0
  -21.1008    3.9304   11.9570 C   0  0  0  0  0  0  0  0  0  0  0  0
  -20.5563    3.7192   10.6799 C   0  0  0  0  0  0  0  0  0  0  0  0
  -19.8439    4.7293   10.0292 C   0  0  0  0  0  0  0  0  0  0  0  0
  -19.6719    5.9687   10.6391 C   0  0  0  0  0  0  0  0  0  0  0  0
  -20.2144    6.2003   11.8993 C   0  0  0  0  0  0  0  0  0  0  0  0
  -20.9253    5.1905   12.5507 C   0  0  0  0  0  0  0  0  0  0  0  0
  -20.8007    1.4772   13.0992 S   0  0  0  0  0  0  0  0  0  0  0  0
  -19.8233    1.8651   14.0946 O   0  0  0  0  0  0  0  0  0  0  0  0
  -20.3957    0.8019   11.8809 O   0  0  0  0  0  0  0  0  0  0  0  0
  -23.0427    0.4090   17.7585 N   0  0  0  0  0  0  0  0  0  0  0  0
  -24.4069   -0.0462   18.0759 C   0  0  0  0  0  0  0  0  0  0  0  0
  -24.4158   -1.6695   18.7491 C   0  0  0  0  0  0  0  0  0  0  0  0
  -25.0199   -2.5228   17.6752 C   0  0  0  0  0  0  0  0  0  0  0  0
  -24.9274   -1.6093   16.4703 C   0  0  0  0  0  0  0  0  0  0  0  0
  -26.0963   -1.7739   15.5132 C   0  0  0  0  0  0  0  0  0  0  0  0
  -26.5059   -3.0697   15.1501 C   0  0  0  0  0  0  0  0  0  0  0  0
  -27.5755   -3.2797   14.2747 C   0  0  0  0  0  0  0  0  0  0  0  0
  -28.2593   -2.1955   13.7223 C   0  0  0  0  0  0  0  0  0  0  0  0
  -29.3944   -2.4056   12.7576 C   0  0  0  0  0  0  0  0  0  0  0  0
  -28.9460   -2.2273   11.4216 O   0  0  0  0  0  0  0  0  0  0  0  0
  -27.8344   -0.9027   14.0416 C   0  0  0  0  0  0  0  0  0  0  0  0
  -26.7647   -0.6948   14.9200 C   0  0  0  0  0  0  0  0  0  0  0  0
  -24.7307   -0.0646   17.2079 C   0  0  0  0  0  0  0  0  0  0  0  0
  -20.9912   -1.1480   18.0076 H   0  0  0  0  0  0  0  0  0  0  0  0
  -19.8653   -3.1521   17.1801 H   0  0  0  0  0  0  0  0  0  0  0  0
  -20.6605   -1.6451   12.0842 H   0  0  0  0  0  0  0  0  0  0  0  0
  -22.7464   -0.4199   12.0563 H   0  0  0  0  0  0  0  0  0  0  0  0
  -23.7326   -0.6582   13.4980 H   0  0  0  0  0  0  0  0  0  0  0  0
  -24.3045    1.7434   13.5938 H   0  0  0  0  0  0  0  0  0  0  0  0
  -24.7875    1.0237   12.0588 H   0  0  0  0  0  0  0  0  0  0  0  0
  -22.8139    1.9577   10.9367 H   0  0  0  0  0  0  0  0  0  0  0  0
  -23.7727    3.2254   11.6875 H   0  0  0  0  0  0  0  0  0  0  0  0
  -22.2216    3.2605   13.6644 H   0  0  0  0  0  0  0  0  0  0  0  0
  -20.6644    2.7615   10.1736 H   0  0  0  0  0  0  0  0  0  0  0  0
  -19.4171    4.5443    9.0464 H   0  0  0  0  0  0  0  0  0  0  0  0
  -19.1132    6.7520   10.1338 H   0  0  0  0  0  0  0  0  0  0  0  0
  -20.0820    7.1675   12.3784 H   0  0  0  0  0  0  0  0  0  0  0  0
  -21.3419    5.4011   13.5324 H   0  0  0  0  0  0  0  0  0  0  0  0
  -25.1492    0.7174   18.7444 H   0  0  0  0  0  0  0  0  0  0  0  0
  -23.9708    0.1437   19.1426 H   0  0  0  0  0  0  0  0  0  0  0  0
  -25.0268   -1.6752   19.6595 H   0  0  0  0  0  0  0  0  0  0  0  0
  -23.3864   -1.9651   18.9846 H   0  0  0  0  0  0  0  0  0  0  0  0
  -24.4813   -3.4659   17.5385 H   0  0  0  0  0  0  0  0  0  0  0  0
  -26.0566   -2.7614   17.9403 H   0  0  0  0  0  0  0  0  0  0  0  0
  -24.0063   -1.8187   15.9113 H   0  0  0  0  0  0  0  0  0  0  0  0
  -25.9926   -3.9445   15.5470 H   0  0  0  0  0  0  0  0  0  0  0  0
  -27.8642   -4.2992   14.0250 H   0  0  0  0  0  0  0  0  0  0  0  0
  -30.2069   -1.6985   12.9549 H   0  0  0  0  0  0  0  0  0  0  0  0
  -29.8082   -3.4151   12.8516 H   0  0  0  0  0  0  0  0  0  0  0  0
  -27.9845   -2.3723   11.4116 H   0  0  0  0  0  0  0  0  0  0  0  0
  -28.3347   -0.0429   13.5974 H   0  0  0  0  0  0  0  0  0  0  0  0
  -26.4794    0.3360   15.1056 H   0  0  0  0  0  0  0  0  0  0  0  0
  -24.4838    0.3440   16.1395 H   0  0  0  0  0  0  0  0  0  0  0  0
  -25.6592    0.7211   17.0461 H   0  0  0  0  0  0  0  0  0  0  0  0
  1  2  2  0
  2  3  1  0
  3  4  1  0
  4  5  2  0
  5  6  1  0
  6  7  2  0
  7  8  1  0
  8  9  2  0
  9 10  1  0
 10 11  1  0
 11 12  1  0
 12 13  1  0
 13 14  1  0
 14 15  1  0
 15 16  1  0
 16 17  1  0
 17 18  2  0
 18 19  1  0
 19 20  2  0
 20 21  1  0
 21 22  2  0
 16 23  1  0
 23 24  2  0
 23 25  2  0
  2 26  1  0
 26 27  1  0
 27 28  1  0
 28 29  1  0
 29 30  1  0
 30 31  1  0
 31 32  2  0
 32 33  1  0
 33 34  2  0
 34 35  1  0
 35 36  1  0
 34 37  1  0
 37 38  2  0
 30 39  1  0
 11  3  2  0
 23 12  1  0
 39 26  1  0
 10  6  1  0
 22 17  1  0
 38 31  1  0
  4 40  1  0
  5 41  1  0
  9 42  1  0
 13 43  1  0
 13 44  1  0
 14 45  1  0
 14 46  1  0
 15 47  1  0
 15 48  1  0
 16 49  1  0
 18 50  1  0
 19 51  1  0
 20 52  1  0
 21 53  1  0
 22 54  1  0
 27 55  1  0
 27 56  1  0
 28 57  1  0
 28 58  1  0
 29 59  1  0
 29 60  1  0
 30 61  1  0
 32 62  1  0
 33 63  1  0
 35 64  1  0
 35 65  1  0
 36 66  1  0
 37 67  1  0
 38 68  1  0
 39 69  1  0
 39 70  1  0
M  END
>  <Energy>  (732) 
645.00159639395622

>  <compound_id>  (732) 
4050

>  <target_id>  (732) 
1

>  <reference_id>  (732) 
137

>  <inspiration_ids>  (732) 
[151, 137]

>  <energy_score>  (732) 
480.3016744602253

>  <distance_score>  (732) 
2.393264605477772

>  <path>  (732) 
/opt/xchem-fragalysis-2/maxwin/BulkDock/SCRATCH/505735/C4050-P137/C4050-P137.minimised.mol

>  <scratch_subdir>  (732) 
/opt/xchem-fragalysis-2/maxwin/BulkDock/SCRATCH/505735/C4050-P137

>  <fragmenstein_runtime>  (732) 
27.546039819717407

>  <fragmenstein_outcome>  (732) 
too moved

>  <fragmenstein_mode>  (732) 
expansion

>  <fragmenstein_error>  (732) 


$$$$
C4050-P151
     RDKit          3D

 70 75  0  0  0  0  0  0  0  0999 V2000
  -22.2206   -3.3584   18.9297 O   0  0  0  0  0  0  0  0  0  0  0  0
  -23.1308   -3.3301   18.1146 C   0  0  0  0  0  0  0  0  0  0  0  0
  -23.0319   -2.4304   16.9099 C   0  0  0  0  0  0  0  0  0  0  0  0
  -22.4017   -3.2017   15.8053 C   0  0  0  0  0  0  0  0  0  0  0  0
  -22.1507   -2.7036   14.5889 C   0  0  0  0  0  0  0  0  0  0  0  0
  -22.5251   -1.3766   14.3181 C   0  0  0  0  0  0  0  0  0  0  0  0
  -22.5509   -0.6980   13.1931 N   0  0  0  0  0  0  0  0  0  0  0  0
  -22.9874    0.5630   13.4840 N   0  0  0  0  0  0  0  0  0  0  0  0
  -23.2086    0.6199   14.7791 C   0  0  0  0  0  0  0  0  0  0  0  0
  -23.0238   -0.6076   15.3675 N   0  0  0  0  0  0  0  0  0  0  0  0
  -23.2727   -1.1113   16.6785 C   0  0  0  0  0  0  0  0  0  0  0  0
  -23.8092   -0.3041   17.7800 N   0  0  0  0  0  0  0  0  0  0  0  0
  -25.0139    0.5398   17.5015 C   0  0  0  0  0  0  0  0  0  0  0  0
  -25.6946    0.9572   18.8121 C   0  0  0  0  0  0  0  0  0  0  0  0
  -24.7800    0.9421   20.0409 C   0  0  0  0  0  0  0  0  0  0  0  0
  -23.4426    1.6161   19.7387 C   0  0  0  0  0  0  0  0  0  0  0  0
  -22.5258    1.8168   20.9299 C   0  0  0  0  0  0  0  0  0  0  0  0
  -21.7789    3.0025   21.0324 C   0  0  0  0  0  0  0  0  0  0  0  0
  -20.8793    3.1938   22.0830 C   0  0  0  0  0  0  0  0  0  0  0  0
  -20.7124    2.2049   23.0483 C   0  0  0  0  0  0  0  0  0  0  0  0
  -21.4468    1.0253   22.9639 C   0  0  0  0  0  0  0  0  0  0  0  0
  -22.3486    0.8321   21.9149 C   0  0  0  0  0  0  0  0  0  0  0  0
  -22.5311    0.6952   18.4599 S   0  0  0  0  0  0  0  0  0  0  0  0
  -22.1480    1.6388   17.4306 O   0  0  0  0  0  0  0  0  0  0  0  0
  -21.5731   -0.1893   19.0761 O   0  0  0  0  0  0  0  0  0  0  0  0
  -24.2238   -4.1704   18.1782 N   0  0  0  0  0  0  0  0  0  0  0  0
  -25.5138   -3.2979   19.1724 C   0  0  0  0  0  0  0  0  0  0  0  0
  -26.8734   -2.3789   18.7535 C   0  0  0  0  0  0  0  0  0  0  0  0
  -27.8701   -3.4086   18.3120 C   0  0  0  0  0  0  0  0  0  0  0  0
  -26.8938   -4.3109   17.6037 C   0  0  0  0  0  0  0  0  0  0  0  0
  -26.5589   -3.9068   16.1724 C   0  0  0  0  0  0  0  0  0  0  0  0
  -25.6556   -4.6792   15.4324 C   0  0  0  0  0  0  0  0  0  0  0  0
  -25.2620   -4.2908   14.1470 C   0  0  0  0  0  0  0  0  0  0  0  0
  -25.7638   -3.1176   13.5733 C   0  0  0  0  0  0  0  0  0  0  0  0
  -25.2932   -2.6490   12.2259 C   0  0  0  0  0  0  0  0  0  0  0  0
  -25.3160   -1.2269   12.1705 O   0  0  0  0  0  0  0  0  0  0  0  0
  -26.7407   -2.4014   14.2627 C   0  0  0  0  0  0  0  0  0  0  0  0
  -27.1336   -2.7921   15.5382 C   0  0  0  0  0  0  0  0  0  0  0  0
  -25.5331   -4.1531   18.7857 C   0  0  0  0  0  0  0  0  0  0  0  0
  -22.1215   -4.2316   16.0084 H   0  0  0  0  0  0  0  0  0  0  0  0
  -21.6910   -3.3018   13.8097 H   0  0  0  0  0  0  0  0  0  0  0  0
  -23.5007    1.5133   15.3035 H   0  0  0  0  0  0  0  0  0  0  0  0
  -24.7404    1.4496   16.9615 H   0  0  0  0  0  0  0  0  0  0  0  0
  -25.7211    0.0032   16.8610 H   0  0  0  0  0  0  0  0  0  0  0  0
  -26.5588    0.3195   19.0129 H   0  0  0  0  0  0  0  0  0  0  0  0
  -26.1100    1.9645   18.6786 H   0  0  0  0  0  0  0  0  0  0  0  0
  -24.6322   -0.0964   20.3617 H   0  0  0  0  0  0  0  0  0  0  0  0
  -25.2875    1.4542   20.8675 H   0  0  0  0  0  0  0  0  0  0  0  0
  -23.6609    2.5964   19.2933 H   0  0  0  0  0  0  0  0  0  0  0  0
  -21.8712    3.7837   20.2799 H   0  0  0  0  0  0  0  0  0  0  0  0
  -20.2931    4.1075   22.1356 H   0  0  0  0  0  0  0  0  0  0  0  0
  -19.9976    2.3468   23.8542 H   0  0  0  0  0  0  0  0  0  0  0  0
  -21.3036    0.2375   23.6998 H   0  0  0  0  0  0  0  0  0  0  0  0
  -22.8709   -0.1216   21.8620 H   0  0  0  0  0  0  0  0  0  0  0  0
  -24.8965   -2.3141   19.1655 H   0  0  0  0  0  0  0  0  0  0  0  0
  -25.3063   -3.2591   20.3643 H   0  0  0  0  0  0  0  0  0  0  0  0
  -26.6103   -1.6766   17.9637 H   0  0  0  0  0  0  0  0  0  0  0  0
  -27.2230   -1.8344   19.6364 H   0  0  0  0  0  0  0  0  0  0  0  0
  -28.2869   -3.9203   19.1882 H   0  0  0  0  0  0  0  0  0  0  0  0
  -28.7087   -3.0214   17.7319 H   0  0  0  0  0  0  0  0  0  0  0  0
  -27.2636   -5.3459   17.6115 H   0  0  0  0  0  0  0  0  0  0  0  0
  -25.2267   -5.5816   15.8626 H   0  0  0  0  0  0  0  0  0  0  0  0
  -24.5343   -4.8970   13.6109 H   0  0  0  0  0  0  0  0  0  0  0  0
  -24.2773   -2.9951   12.0078 H   0  0  0  0  0  0  0  0  0  0  0  0
  -25.9649   -3.0333   11.4517 H   0  0  0  0  0  0  0  0  0  0  0  0
  -24.4007   -0.9136   12.3357 H   0  0  0  0  0  0  0  0  0  0  0  0
  -27.1847   -1.5153   13.8114 H   0  0  0  0  0  0  0  0  0  0  0  0
  -27.8881   -2.1762   16.0163 H   0  0  0  0  0  0  0  0  0  0  0  0
  -25.7736   -4.9296   19.7619 H   0  0  0  0  0  0  0  0  0  0  0  0
  -25.4198   -5.2659   18.4587 H   0  0  0  0  0  0  0  0  0  0  0  0
  1  2  2  0
  2  3  1  0
  3  4  1  0
  4  5  2  0
  5  6  1  0
  6  7  2  0
  7  8  1  0
  8  9  2  0
  9 10  1  0
 10 11  1  0
 11 12  1  0
 12 13  1  0
 13 14  1  0
 14 15  1  0
 15 16  1  0
 16 17  1  0
 17 18  2  0
 18 19  1  0
 19 20  2  0
 20 21  1  0
 21 22  2  0
 16 23  1  0
 23 24  2  0
 23 25  2  0
  2 26  1  0
 26 27  1  0
 27 28  1  0
 28 29  1  0
 29 30  1  0
 30 31  1  0
 31 32  2  0
 32 33  1  0
 33 34  2  0
 34 35  1  0
 35 36  1  0
 34 37  1  0
 37 38  2  0
 30 39  1  0
 11  3  2  0
 23 12  1  0
 39 26  1  0
 10  6  1  0
 22 17  1  0
 38 31  1  0
  4 40  1  0
  5 41  1  0
  9 42  1  0
 13 43  1  0
 13 44  1  0
 14 45  1  0
 14 46  1  0
 15 47  1  0
 15 48  1  0
 16 49  1  0
 18 50  1  0
 19 51  1  0
 20 52  1  0
 21 53  1  0
 22 54  1  0
 27 55  1  0
 27 56  1  0
 28 57  1  0
 28 58  1  0
 29 59  1  0
 29 60  1  0
 30 61  1  0
 32 62  1  0
 33 63  1  0
 35 64  1  0
 35 65  1  0
 36 66  1  0
 37 67  1  0
 38 68  1  0
 39 69  1  0
 39 70  1  0
M  END
>  <Energy>  (733) 
675.09935035995352

>  <compound_id>  (733) 
4050

>  <target_id>  (733) 
1

>  <reference_id>  (733) 
151

>  <inspiration_ids>  (733) 
[151, 170]

>  <energy_score>  (733) 
506.47916948890423

>  <distance_score>  (733) 
3.1192119911488723

>  <path>  (733) 
/opt/xchem-fragalysis-2/maxwin/BulkDock/SCRATCH/505735/C4050-P151/C4050-P151.minimised.mol

>  <scratch_subdir>  (733) 
/opt/xchem-fragalysis-2/maxwin/BulkDock/SCRATCH/505735/C4050-P151

>  <fragmenstein_runtime>  (733) 
21.01155424118042

>  <fragmenstein_outcome>  (733) 
too moved

>  <fragmenstein_mode>  (733) 
expansion

>  <fragmenstein_error>  (733) 


$$$$
C4050-P170
     RDKit          3D

 70 75  0  0  0  0  0  0  0  0999 V2000
  -22.0611   -3.9618   17.9798 O   0  0  0  0  0  0  0  0  0  0  0  0
  -22.3594   -3.4468   16.9089 C   0  0  0  0  0  0  0  0  0  0  0  0
  -21.5267   -2.3302   16.3025 C   0  0  0  0  0  0  0  0  0  0  0  0
  -20.3767   -2.8756   15.5481 C   0  0  0  0  0  0  0  0  0  0  0  0
  -19.4530   -2.1078   14.9481 C   0  0  0  0  0  0  0  0  0  0  0  0
  -19.5699   -0.7057   15.0177 C   0  0  0  0  0  0  0  0  0  0  0  0
  -18.8149    0.2696   14.5572 N   0  0  0  0  0  0  0  0  0  0  0  0
  -19.3874    1.4573   14.9284 N   0  0  0  0  0  0  0  0  0  0  0  0
  -20.4842    1.1704   15.5898 C   0  0  0  0  0  0  0  0  0  0  0  0
  -20.6653   -0.1875   15.6929 N   0  0  0  0  0  0  0  0  0  0  0  0
  -21.6618   -0.9741   16.3254 C   0  0  0  0  0  0  0  0  0  0  0  0
  -22.8310   -0.3923   16.9643 N   0  0  0  0  0  0  0  0  0  0  0  0
  -23.6428    0.6547   16.2745 C   0  0  0  0  0  0  0  0  0  0  0  0
  -24.2612    1.6980   17.2094 C   0  0  0  0  0  0  0  0  0  0  0  0
  -23.3230    2.3271   18.2525 C   0  0  0  0  0  0  0  0  0  0  0  0
  -22.2550    1.3921   18.8341 C   0  0  0  0  0  0  0  0  0  0  0  0
  -21.8113    1.6788   20.2533 C   0  0  0  0  0  0  0  0  0  0  0  0
  -20.4443    1.8900   20.5174 C   0  0  0  0  0  0  0  0  0  0  0  0
  -19.9961    2.1534   21.8120 C   0  0  0  0  0  0  0  0  0  0  0  0
  -20.9062    2.2003   22.8635 C   0  0  0  0  0  0  0  0  0  0  0  0
  -22.2618    1.9842   22.6206 C   0  0  0  0  0  0  0  0  0  0  0  0
  -22.7138    1.7260   21.3244 C   0  0  0  0  0  0  0  0  0  0  0  0
  -22.7614   -0.3174   18.6839 S   0  0  0  0  0  0  0  0  0  0  0  0
  -21.7100   -1.1858   19.1415 O   0  0  0  0  0  0  0  0  0  0  0  0
  -24.1154   -0.4731   19.1777 O   0  0  0  0  0  0  0  0  0  0  0  0
  -23.3863   -3.8638   16.0920 N   0  0  0  0  0  0  0  0  0  0  0  0
  -24.8656   -2.9247   16.5850 C   0  0  0  0  0  0  0  0  0  0  0  0
  -25.4881   -3.3975   18.1043 C   0  0  0  0  0  0  0  0  0  0  0  0
  -26.0232   -4.7822   17.8623 C   0  0  0  0  0  0  0  0  0  0  0  0
  -26.0433   -4.8212   16.3530 C   0  0  0  0  0  0  0  0  0  0  0  0
  -27.3056   -4.3460   15.6423 C   0  0  0  0  0  0  0  0  0  0  0  0
  -28.2641   -3.5372   16.2656 C   0  0  0  0  0  0  0  0  0  0  0  0
  -29.1589   -2.7924   15.5005 C   0  0  0  0  0  0  0  0  0  0  0  0
  -29.1230   -2.8643   14.1052 C   0  0  0  0  0  0  0  0  0  0  0  0
  -29.9079   -1.8976   13.2769 C   0  0  0  0  0  0  0  0  0  0  0  0
  -29.0631   -0.7869   13.0016 O   0  0  0  0  0  0  0  0  0  0  0  0
  -28.2562   -3.7682   13.4862 C   0  0  0  0  0  0  0  0  0  0  0  0
  -27.3639   -4.5127   14.2495 C   0  0  0  0  0  0  0  0  0  0  0  0
  -24.8260   -3.5650   15.9345 C   0  0  0  0  0  0  0  0  0  0  0  0
  -20.2899   -3.9603   15.4951 H   0  0  0  0  0  0  0  0  0  0  0  0
  -18.6021   -2.5289   14.4289 H   0  0  0  0  0  0  0  0  0  0  0  0
  -21.1435    1.9056   16.0152 H   0  0  0  0  0  0  0  0  0  0  0  0
  -23.0689    1.1715   15.5045 H   0  0  0  0  0  0  0  0  0  0  0  0
  -24.4538    0.1508   15.7382 H   0  0  0  0  0  0  0  0  0  0  0  0
  -25.1134    1.2444   17.7306 H   0  0  0  0  0  0  0  0  0  0  0  0
  -24.7020    2.5001   16.6039 H   0  0  0  0  0  0  0  0  0  0  0  0
  -23.9482    2.7598   19.0427 H   0  0  0  0  0  0  0  0  0  0  0  0
  -22.8114    3.1789   17.7970 H   0  0  0  0  0  0  0  0  0  0  0  0
  -21.3628    1.4613   18.2050 H   0  0  0  0  0  0  0  0  0  0  0  0
  -19.7060    1.8453   19.7151 H   0  0  0  0  0  0  0  0  0  0  0  0
  -18.9367    2.3219   21.9950 H   0  0  0  0  0  0  0  0  0  0  0  0
  -20.5599    2.4010   23.8735 H   0  0  0  0  0  0  0  0  0  0  0  0
  -22.9716    2.0113   23.4439 H   0  0  0  0  0  0  0  0  0  0  0  0
  -23.7769    1.5482   21.1688 H   0  0  0  0  0  0  0  0  0  0  0  0
  -25.2687   -1.8444   16.1761 H   0  0  0  0  0  0  0  0  0  0  0  0
  -24.2183   -2.2002   17.1985 H   0  0  0  0  0  0  0  0  0  0  0  0
  -26.2759   -2.6881   18.3788 H   0  0  0  0  0  0  0  0  0  0  0  0
  -24.7065   -3.3903   18.8722 H   0  0  0  0  0  0  0  0  0  0  0  0
  -25.3046   -5.5156   18.2429 H   0  0  0  0  0  0  0  0  0  0  0  0
  -26.9804   -4.9800   18.3509 H   0  0  0  0  0  0  0  0  0  0  0  0
  -25.7283   -5.8071   15.9847 H   0  0  0  0  0  0  0  0  0  0  0  0
  -28.2784   -3.3931   17.3419 H   0  0  0  0  0  0  0  0  0  0  0  0
  -29.8347   -2.0995   15.9971 H   0  0  0  0  0  0  0  0  0  0  0  0
  -30.2251   -2.3542   12.3333 H   0  0  0  0  0  0  0  0  0  0  0  0
  -30.8002   -1.5486   13.8071 H   0  0  0  0  0  0  0  0  0  0  0  0
  -29.5727   -0.1889   12.4302 H   0  0  0  0  0  0  0  0  0  0  0  0
  -28.2180   -3.8379   12.4015 H   0  0  0  0  0  0  0  0  0  0  0  0
  -26.6391   -5.1451   13.7391 H   0  0  0  0  0  0  0  0  0  0  0  0
  -24.6631   -4.3431   15.0803 H   0  0  0  0  0  0  0  0  0  0  0  0
  -25.0846   -3.0152   14.8296 H   0  0  0  0  0  0  0  0  0  0  0  0
  1  2  2  0
  2  3  1  0
  3  4  1  0
  4  5  2  0
  5  6  1  0
  6  7  2  0
  7  8  1  0
  8  9  2  0
  9 10  1  0
 10 11  1  0
 11 12  1  0
 12 13  1  0
 13 14  1  0
 14 15  1  0
 15 16  1  0
 16 17  1  0
 17 18  2  0
 18 19  1  0
 19 20  2  0
 20 21  1  0
 21 22  2  0
 16 23  1  0
 23 24  2  0
 23 25  2  0
  2 26  1  0
 26 27  1  0
 27 28  1  0
 28 29  1  0
 29 30  1  0
 30 31  1  0
 31 32  2  0
 32 33  1  0
 33 34  2  0
 34 35  1  0
 35 36  1  0
 34 37  1  0
 37 38  2  0
 30 39  1  0
 11  3  2  0
 23 12  1  0
 39 26  1  0
 10  6  1  0
 22 17  1  0
 38 31  1  0
  4 40  1  0
  5 41  1  0
  9 42  1  0
 13 43  1  0
 13 44  1  0
 14 45  1  0
 14 46  1  0
 15 47  1  0
 15 48  1  0
 16 49  1  0
 18 50  1  0
 19 51  1  0
 20 52  1  0
 21 53  1  0
 22 54  1  0
 27 55  1  0
 27 56  1  0
 28 57  1  0
 28 58  1  0
 29 59  1  0
 29 60  1  0
 30 61  1  0
 32 62  1  0
 33 63  1  0
 35 64  1  0
 35 65  1  0
 36 66  1  0
 37 67  1  0
 38 68  1  0
 39 69  1  0
 39 70  1  0
M  END
>  <Energy>  (734) 
680.77196491278551

>  <compound_id>  (734) 
4050

>  <target_id>  (734) 
1

>  <reference_id>  (734) 
170

>  <inspiration_ids>  (734) 
[151, 170]

>  <energy_score>  (734) 
512.151784041731

>  <distance_score>  (734) 
2.475322786365778

>  <path>  (734) 
/opt/xchem-fragalysis-2/maxwin/BulkDock/SCRATCH/505735/C4050-P170/C4050-P170.minimised.mol

>  <scratch_subdir>  (734) 
/opt/xchem-fragalysis-2/maxwin/BulkDock/SCRATCH/505735/C4050-P170

>  <fragmenstein_runtime>  (734) 
18.169938564300537

>  <fragmenstein_outcome>  (734) 
too moved

>  <fragmenstein_mode>  (734) 
expansion

>  <fragmenstein_error>  (734) 


$$$$
C123-P151
     RDKit          3D

 39 42  0  0  0  0  0  0  0  0999 V2000
  -23.8149   -0.1106   16.3122 O   0  0  0  0  0  0  0  0  0  0  0  0
  -22.8391   -0.9750   16.9276 S   0  0  0  0  0  0  0  0  0  0  0  0
  -21.8502   -0.4311   17.8360 O   0  0  0  0  0  0  0  0  0  0  0  0
  -22.0935   -2.0433   15.6747 C   0  0  0  0  0  0  0  0  0  0  0  0
  -20.8713   -1.4717   15.0057 C   0  0  0  0  0  0  0  0  0  0  0  0
  -19.6662   -1.2875   15.6835 C   0  0  0  0  0  0  0  0  0  0  0  0
  -18.4921   -1.0861   14.9764 C   0  0  0  0  0  0  0  0  0  0  0  0
  -18.5103   -0.9865   13.5949 C   0  0  0  0  0  0  0  0  0  0  0  0
  -19.7018   -1.1152   12.9038 C   0  0  0  0  0  0  0  0  0  0  0  0
  -20.8736   -1.3604   13.6056 C   0  0  0  0  0  0  0  0  0  0  0  0
  -21.7509   -3.4323   16.2063 C   0  0  0  0  0  0  0  0  0  0  0  0
  -21.4545   -3.3763   17.6838 C   0  0  0  0  0  0  0  0  0  0  0  0
  -22.7462   -3.1708   18.4786 C   0  0  0  0  0  0  0  0  0  0  0  0
  -23.6452   -2.1912   17.8077 N   0  0  0  0  0  0  0  0  0  0  0  0
  -25.0746   -2.3937   17.7616 C   0  0  0  0  0  0  0  0  0  0  0  0
  -25.5573   -2.9134   18.9139 C   0  0  0  0  0  0  0  0  0  0  0  0
  -26.9530   -3.2824   19.0339 C   0  0  0  0  0  0  0  0  0  0  0  0
  -27.8139   -3.0816   18.0270 C   0  0  0  0  0  0  0  0  0  0  0  0
  -27.3453   -2.5281   16.8159 C   0  0  0  0  0  0  0  0  0  0  0  0
  -27.9770   -2.2990   15.6929 N   0  0  0  0  0  0  0  0  0  0  0  0
  -27.0612   -1.8982   14.7740 N   0  0  0  0  0  0  0  0  0  0  0  0
  -25.8967   -1.8364   15.3778 C   0  0  0  0  0  0  0  0  0  0  0  0
  -25.9940   -2.2052   16.6947 N   0  0  0  0  0  0  0  0  0  0  0  0
  -22.8746   -2.1716   14.9169 H   0  0  0  0  0  0  0  0  0  0  0  0
  -19.5939   -1.3407   16.7650 H   0  0  0  0  0  0  0  0  0  0  0  0
  -17.5493   -0.9977   15.5047 H   0  0  0  0  0  0  0  0  0  0  0  0
  -17.5836   -0.8083   13.0534 H   0  0  0  0  0  0  0  0  0  0  0  0
  -19.7134   -1.0370   11.8204 H   0  0  0  0  0  0  0  0  0  0  0  0
  -21.7908   -1.5074   13.0373 H   0  0  0  0  0  0  0  0  0  0  0  0
  -20.9121   -3.8859   15.6630 H   0  0  0  0  0  0  0  0  0  0  0  0
  -22.6023   -4.1052   16.0358 H   0  0  0  0  0  0  0  0  0  0  0  0
  -20.9669   -4.2976   17.9628 H   0  0  0  0  0  0  0  0  0  0  0  0
  -20.7231   -2.6091   17.9280 H   0  0  0  0  0  0  0  0  0  0  0  0
  -22.5362   -2.8380   19.4976 H   0  0  0  0  0  0  0  0  0  0  0  0
  -23.2423   -4.1465   18.5431 H   0  0  0  0  0  0  0  0  0  0  0  0
  -24.9568   -3.0704   19.8042 H   0  0  0  0  0  0  0  0  0  0  0  0
  -27.2910   -3.7095   19.9742 H   0  0  0  0  0  0  0  0  0  0  0  0
  -28.8631   -3.3434   18.1111 H   0  0  0  0  0  0  0  0  0  0  0  0
  -24.9854   -1.5455   14.8878 H   0  0  0  0  0  0  0  0  0  0  0  0
  1  2  2  0
  2  3  2  0
  2  4  1  0
  4  5  1  0
  5  6  2  0
  6  7  1  0
  7  8  2  0
  8  9  1  0
  9 10  2  0
  4 11  1  0
 11 12  1  0
 12 13  1  0
 13 14  1  0
 14 15  1  0
 15 16  2  0
 16 17  1  0
 17 18  2  0
 18 19  1  0
 19 20  2  0
 20 21  1  0
 21 22  2  0
 22 23  1  0
 14  2  1  0
 23 15  1  0
 10  5  1  0
 23 19  1  0
  4 24  1  0
  6 25  1  0
  7 26  1  0
  8 27  1  0
  9 28  1  0
 10 29  1  0
 11 30  1  0
 11 31  1  0
 12 32  1  0
 12 33  1  0
 13 34  1  0
 13 35  1  0
 16 36  1  0
 17 37  1  0
 18 38  1  0
 22 39  1  0
M  END
>  <Energy>  (735) 
79.583419896479498

>  <compound_id>  (735) 
123

>  <target_id>  (735) 
1

>  <reference_id>  (735) 
151

>  <inspiration_ids>  (735) 
[151, 174]

>  <energy_score>  (735) 
-15.441460938694078

>  <distance_score>  (735) 
2.282523216787187

>  <path>  (735) 
/opt/xchem-fragalysis-2/maxwin/BulkDock/SCRATCH/505735/C123-P151/C123-P151.minimised.mol

>  <scratch_subdir>  (735) 
/opt/xchem-fragalysis-2/maxwin/BulkDock/SCRATCH/505735/C123-P151

>  <fragmenstein_runtime>  (735) 
3.1057076454162598

>  <fragmenstein_outcome>  (735) 
too moved

>  <fragmenstein_mode>  (735) 
expansion

>  <fragmenstein_error>  (735) 


$$$$
C123-P174
     RDKit          3D

 39 42  0  0  0  0  0  0  0  0999 V2000
  -23.7713   -0.1129   16.3072 O   0  0  0  0  0  0  0  0  0  0  0  0
  -22.8051   -0.9836   16.9295 S   0  0  0  0  0  0  0  0  0  0  0  0
  -21.7797   -0.4372   17.7931 O   0  0  0  0  0  0  0  0  0  0  0  0
  -22.1130   -2.1125   15.7010 C   0  0  0  0  0  0  0  0  0  0  0  0
  -20.8996   -1.5804   14.9852 C   0  0  0  0  0  0  0  0  0  0  0  0
  -19.6627   -1.4451   15.6147 C   0  0  0  0  0  0  0  0  0  0  0  0
  -18.5145   -1.2410   14.8664 C   0  0  0  0  0  0  0  0  0  0  0  0
  -18.5873   -1.1000   13.4906 C   0  0  0  0  0  0  0  0  0  0  0  0
  -19.8081   -1.1900   12.8470 C   0  0  0  0  0  0  0  0  0  0  0  0
  -20.9562   -1.4294   13.5907 C   0  0  0  0  0  0  0  0  0  0  0  0
  -21.7981   -3.4896   16.2750 C   0  0  0  0  0  0  0  0  0  0  0  0
  -21.4746   -3.4055   17.7455 C   0  0  0  0  0  0  0  0  0  0  0  0
  -22.7259   -3.1033   18.5726 C   0  0  0  0  0  0  0  0  0  0  0  0
  -23.6271   -2.1423   17.8720 N   0  0  0  0  0  0  0  0  0  0  0  0
  -25.0541   -2.3751   17.7905 C   0  0  0  0  0  0  0  0  0  0  0  0
  -25.5495   -2.8910   18.9399 C   0  0  0  0  0  0  0  0  0  0  0  0
  -26.9382   -3.2890   19.0416 C   0  0  0  0  0  0  0  0  0  0  0  0
  -27.7867   -3.1142   18.0202 C   0  0  0  0  0  0  0  0  0  0  0  0
  -27.3108   -2.5579   16.8137 C   0  0  0  0  0  0  0  0  0  0  0  0
  -27.9340   -2.3485   15.6824 N   0  0  0  0  0  0  0  0  0  0  0  0
  -27.0191   -1.9224   14.7759 N   0  0  0  0  0  0  0  0  0  0  0  0
  -25.8644   -1.8283   15.3943 C   0  0  0  0  0  0  0  0  0  0  0  0
  -25.9638   -2.2059   16.7090 N   0  0  0  0  0  0  0  0  0  0  0  0
  -22.9112   -2.2515   14.9637 H   0  0  0  0  0  0  0  0  0  0  0  0
  -19.5481   -1.5292   16.6904 H   0  0  0  0  0  0  0  0  0  0  0  0
  -17.5495   -1.1820   15.3587 H   0  0  0  0  0  0  0  0  0  0  0  0
  -17.6807   -0.9167   12.9181 H   0  0  0  0  0  0  0  0  0  0  0  0
  -19.8639   -1.0790   11.7678 H   0  0  0  0  0  0  0  0  0  0  0  0
  -21.9000   -1.5351   13.0580 H   0  0  0  0  0  0  0  0  0  0  0  0
  -20.9827   -3.9826   15.7310 H   0  0  0  0  0  0  0  0  0  0  0  0
  -22.6708   -4.1434   16.1412 H   0  0  0  0  0  0  0  0  0  0  0  0
  -20.6897   -2.6810   17.9614 H   0  0  0  0  0  0  0  0  0  0  0  0
  -21.0580   -4.3590   18.0385 H   0  0  0  0  0  0  0  0  0  0  0  0
  -22.4584   -2.7097   19.5582 H   0  0  0  0  0  0  0  0  0  0  0  0
  -23.2389   -4.0598   18.7264 H   0  0  0  0  0  0  0  0  0  0  0  0
  -24.9636   -3.0230   19.8439 H   0  0  0  0  0  0  0  0  0  0  0  0
  -27.2821   -3.7162   19.9797 H   0  0  0  0  0  0  0  0  0  0  0  0
  -28.8314   -3.3975   18.0897 H   0  0  0  0  0  0  0  0  0  0  0  0
  -24.9600   -1.5061   14.9121 H   0  0  0  0  0  0  0  0  0  0  0  0
  1  2  2  0
  2  3  2  0
  2  4  1  0
  4  5  1  0
  5  6  2  0
  6  7  1  0
  7  8  2  0
  8  9  1  0
  9 10  2  0
  4 11  1  0
 11 12  1  0
 12 13  1  0
 13 14  1  0
 14 15  1  0
 15 16  2  0
 16 17  1  0
 17 18  2  0
 18 19  1  0
 19 20  2  0
 20 21  1  0
 21 22  2  0
 22 23  1  0
 14  2  1  0
 23 15  1  0
 10  5  1  0
 23 19  1  0
  4 24  1  0
  6 25  1  0
  7 26  1  0
  8 27  1  0
  9 28  1  0
 10 29  1  0
 11 30  1  0
 11 31  1  0
 12 32  1  0
 12 33  1  0
 13 34  1  0
 13 35  1  0
 16 36  1  0
 17 37  1  0
 18 38  1  0
 22 39  1  0
M  END
>  <Energy>  (736) 
79.240013356490095

>  <compound_id>  (736) 
123

>  <target_id>  (736) 
1

>  <reference_id>  (736) 
174

>  <inspiration_ids>  (736) 
[151, 174]

>  <energy_score>  (736) 
-15.784867478683125

>  <distance_score>  (736) 
2.273643204796992

>  <path>  (736) 
/opt/xchem-fragalysis-2/maxwin/BulkDock/SCRATCH/505735/C123-P174/C123-P174.minimised.mol

>  <scratch_subdir>  (736) 
/opt/xchem-fragalysis-2/maxwin/BulkDock/SCRATCH/505735/C123-P174

>  <fragmenstein_runtime>  (736) 
3.217388153076172

>  <fragmenstein_outcome>  (736) 
too moved

>  <fragmenstein_mode>  (736) 
expansion

>  <fragmenstein_error>  (736) 


$$$$
C123-P151
     RDKit          2D

  0  0  0  0  0  0  0  0  0  0999 V2000
M  END
>  <compound_id>  (737) 
123

>  <target_id>  (737) 
1

>  <reference_id>  (737) 
151

>  <inspiration_ids>  (737) 
[151, 176]

>  <energy_score>  (737) 
nan

>  <distance_score>  (737) 
nan

>  <path>  (737) 
/opt/xchem-fragalysis-2/maxwin/BulkDock/SCRATCH/505735/C123-P151/C123-P151.minimised.mol

>  <scratch_subdir>  (737) 
/opt/xchem-fragalysis-2/maxwin/BulkDock/SCRATCH/505735/C123-P151

>  <fragmenstein_runtime>  (737) 
0.6504411697387695

>  <fragmenstein_outcome>  (737) 
too distant

>  <fragmenstein_mode>  (737) 
expansion

>  <fragmenstein_error>  (737) 
DistanceError: hit0

$$$$
C4331-P151
     RDKit          3D

 60 65  0  0  0  0  0  0  0  0999 V2000
  -25.9319   -5.5552   14.1357 O   0  0  0  0  0  0  0  0  0  0  0  0
  -25.1509   -4.4316   14.6186 S   0  0  0  0  0  0  0  0  0  0  0  0
  -24.0005   -4.6744   15.4557 O   0  0  0  0  0  0  0  0  0  0  0  0
  -24.7073   -3.3922   13.1789 C   0  0  0  0  0  0  0  0  0  0  0  0
  -23.3044   -2.8330   13.3886 C   0  0  0  0  0  0  0  0  0  0  0  0
  -22.2115   -3.7119   13.2625 C   0  0  0  0  0  0  0  0  0  0  0  0
  -20.9133   -3.3039   13.5675 C   0  0  0  0  0  0  0  0  0  0  0  0
  -20.6695   -1.9968   13.9696 C   0  0  0  0  0  0  0  0  0  0  0  0
  -21.7278   -1.0985   14.0624 C   0  0  0  0  0  0  0  0  0  0  0  0
  -23.0333   -1.5113   13.7743 C   0  0  0  0  0  0  0  0  0  0  0  0
  -25.8336   -2.3969   12.8367 C   0  0  0  0  0  0  0  0  0  0  0  0
  -27.2312   -2.9204   13.1803 C   0  0  0  0  0  0  0  0  0  0  0  0
  -27.4879   -3.1118   14.6853 C   0  0  0  0  0  0  0  0  0  0  0  0
  -26.2505   -3.4067   15.4609 N   0  0  0  0  0  0  0  0  0  0  0  0
  -25.6272   -2.4560   16.3611 C   0  0  0  0  0  0  0  0  0  0  0  0
  -25.8320   -1.1436   16.1233 C   0  0  0  0  0  0  0  0  0  0  0  0
  -25.1450   -0.1135   16.9148 C   0  0  0  0  0  0  0  0  0  0  0  0
  -25.4244    1.1996   16.5779 N   0  0  0  0  0  0  0  0  0  0  0  0
  -24.6504    2.3683   16.9864 C   0  0  0  0  0  0  0  0  0  0  0  0
  -25.2648    3.6450   16.5352 C   0  0  0  0  0  0  0  0  0  0  0  0
  -25.0987    4.2720   15.3903 N   0  0  0  0  0  0  0  0  0  0  0  0
  -25.9060    5.3865   15.5015 C   0  0  0  0  0  0  0  0  0  0  0  0
  -26.0058    6.3873   14.4430 C   0  0  0  0  0  0  0  0  0  0  0  0
  -26.8668    7.4874   14.5680 C   0  0  0  0  0  0  0  0  0  0  0  0
  -26.9554    8.4423   13.5513 C   0  0  0  0  0  0  0  0  0  0  0  0
  -26.1834    8.3080   12.3992 C   0  0  0  0  0  0  0  0  0  0  0  0
  -25.3233    7.2204   12.2614 C   0  0  0  0  0  0  0  0  0  0  0  0
  -25.2352    6.2650   13.2776 C   0  0  0  0  0  0  0  0  0  0  0  0
  -26.5779    5.4461   16.6634 N   0  0  0  0  0  0  0  0  0  0  0  0
  -26.1621    4.3376   17.2905 N   0  0  0  0  0  0  0  0  0  0  0  0
  -24.2955   -0.4978   17.8923 C   0  0  0  0  0  0  0  0  0  0  0  0
  -24.0962   -1.8696   18.1859 C   0  0  0  0  0  0  0  0  0  0  0  0
  -23.3411   -2.4762   19.0756 N   0  0  0  0  0  0  0  0  0  0  0  0
  -23.6049   -3.8220   18.9973 N   0  0  0  0  0  0  0  0  0  0  0  0
  -24.5188   -3.9918   18.0663 C   0  0  0  0  0  0  0  0  0  0  0  0
  -24.7997   -2.8038   17.4444 N   0  0  0  0  0  0  0  0  0  0  0  0
  -24.6553   -4.1061   12.3443 H   0  0  0  0  0  0  0  0  0  0  0  0
  -22.3644   -4.7571   12.9911 H   0  0  0  0  0  0  0  0  0  0  0  0
  -20.1063   -4.0290   13.5199 H   0  0  0  0  0  0  0  0  0  0  0  0
  -19.6600   -1.6808   14.2200 H   0  0  0  0  0  0  0  0  0  0  0  0
  -21.5384   -0.0758   14.3794 H   0  0  0  0  0  0  0  0  0  0  0  0
  -23.8187   -0.7721   13.8884 H   0  0  0  0  0  0  0  0  0  0  0  0
  -25.7059   -1.4317   13.3279 H   0  0  0  0  0  0  0  0  0  0  0  0
  -25.7833   -2.1766   11.7626 H   0  0  0  0  0  0  0  0  0  0  0  0
  -27.3948   -3.8708   12.6570 H   0  0  0  0  0  0  0  0  0  0  0  0
  -27.9874   -2.2330   12.7820 H   0  0  0  0  0  0  0  0  0  0  0  0
  -28.0090   -2.2375   15.0885 H   0  0  0  0  0  0  0  0  0  0  0  0
  -28.1859   -3.9463   14.8283 H   0  0  0  0  0  0  0  0  0  0  0  0
  -26.4626   -0.7765   15.3254 H   0  0  0  0  0  0  0  0  0  0  0  0
  -25.7901    1.3168   15.6330 H   0  0  0  0  0  0  0  0  0  0  0  0
  -23.6406    2.2957   16.5645 H   0  0  0  0  0  0  0  0  0  0  0  0
  -24.5473    2.3874   18.0782 H   0  0  0  0  0  0  0  0  0  0  0  0
  -27.4751    7.6071   15.4618 H   0  0  0  0  0  0  0  0  0  0  0  0
  -27.6261    9.2902   13.6620 H   0  0  0  0  0  0  0  0  0  0  0  0
  -26.2511    9.0521   11.6096 H   0  0  0  0  0  0  0  0  0  0  0  0
  -24.7183    7.1151   11.3644 H   0  0  0  0  0  0  0  0  0  0  0  0
  -24.5573    5.4227   13.1565 H   0  0  0  0  0  0  0  0  0  0  0  0
  -26.5321    4.1152   18.2076 H   0  0  0  0  0  0  0  0  0  0  0  0
  -23.7538    0.2136   18.5024 H   0  0  0  0  0  0  0  0  0  0  0  0
  -24.9847   -4.9270   17.7920 H   0  0  0  0  0  0  0  0  0  0  0  0
  1  2  2  0
  2  3  2  0
  2  4  1  0
  4  5  1  0
  5  6  2  0
  6  7  1  0
  7  8  2  0
  8  9  1  0
  9 10  2  0
  4 11  1  0
 11 12  1  0
 12 13  1  0
 13 14  1  0
 14 15  1  0
 15 16  2  0
 16 17  1  0
 17 18  1  0
 18 19  1  0
 19 20  1  0
 20 21  2  0
 21 22  1  0
 22 23  1  0
 23 24  2  0
 24 25  1  0
 25 26  2  0
 26 27  1  0
 27 28  2  0
 22 29  2  0
 29 30  1  0
 17 31  2  0
 31 32  1  0
 32 33  2  0
 33 34  1  0
 34 35  2  0
 35 36  1  0
 14  2  1  0
 36 15  1  0
 10  5  1  0
 30 20  1  0
 36 32  1  0
 28 23  1  0
  4 37  1  0
  6 38  1  0
  7 39  1  0
  8 40  1  0
  9 41  1  0
 10 42  1  0
 11 43  1  0
 11 44  1  0
 12 45  1  0
 12 46  1  0
 13 47  1  0
 13 48  1  0
 16 49  1  0
 18 50  1  0
 19 51  1  0
 19 52  1  0
 24 53  1  0
 25 54  1  0
 26 55  1  0
 27 56  1  0
 28 57  1  0
 30 58  1  0
 31 59  1  0
 35 60  1  0
M  END
>  <Energy>  (738) 
96.985207886893534

>  <compound_id>  (738) 
4331

>  <target_id>  (738) 
1

>  <reference_id>  (738) 
151

>  <inspiration_ids>  (738) 
[151, 192]

>  <energy_score>  (738) 
-54.10763939886206

>  <distance_score>  (738) 
2.4683626649420463

>  <path>  (738) 
/opt/xchem-fragalysis-2/maxwin/BulkDock/SCRATCH/505735/C4331-P151/C4331-P151.minimised.mol

>  <scratch_subdir>  (738) 
/opt/xchem-fragalysis-2/maxwin/BulkDock/SCRATCH/505735/C4331-P151

>  <fragmenstein_runtime>  (738) 
37.185179233551025

>  <fragmenstein_outcome>  (738) 
too moved

>  <fragmenstein_mode>  (738) 
expansion

>  <fragmenstein_error>  (738) 


$$$$
C4331-P192
     RDKit          3D

 60 65  0  0  0  0  0  0  0  0999 V2000
  -25.0627   -5.8334   14.1312 O   0  0  0  0  0  0  0  0  0  0  0  0
  -24.5698   -4.5510   14.5992 S   0  0  0  0  0  0  0  0  0  0  0  0
  -23.5689   -4.5135   15.6416 O   0  0  0  0  0  0  0  0  0  0  0  0
  -24.0391   -3.5824   13.1402 C   0  0  0  0  0  0  0  0  0  0  0  0
  -22.7820   -2.8094   13.5084 C   0  0  0  0  0  0  0  0  0  0  0  0
  -21.5666   -3.5156   13.5808 C   0  0  0  0  0  0  0  0  0  0  0  0
  -20.4103   -2.9115   14.0707 C   0  0  0  0  0  0  0  0  0  0  0  0
  -20.4319   -1.5783   14.4597 C   0  0  0  0  0  0  0  0  0  0  0  0
  -21.6107   -0.8479   14.3543 C   0  0  0  0  0  0  0  0  0  0  0  0
  -22.7773   -1.4574   13.8835 C   0  0  0  0  0  0  0  0  0  0  0  0
  -25.2089   -2.7909   12.5273 C   0  0  0  0  0  0  0  0  0  0  0  0
  -26.5524   -3.5082   12.6737 C   0  0  0  0  0  0  0  0  0  0  0  0
  -27.0526   -3.6059   14.1234 C   0  0  0  0  0  0  0  0  0  0  0  0
  -25.9519   -3.6719   15.1210 N   0  0  0  0  0  0  0  0  0  0  0  0
  -25.6831   -2.6279   16.0839 C   0  0  0  0  0  0  0  0  0  0  0  0
  -25.9708   -1.3582   15.7307 C   0  0  0  0  0  0  0  0  0  0  0  0
  -25.6202   -0.2320   16.6094 C   0  0  0  0  0  0  0  0  0  0  0  0
  -25.9391    1.0319   16.1401 N   0  0  0  0  0  0  0  0  0  0  0  0
  -26.1031    2.2378   16.9512 C   0  0  0  0  0  0  0  0  0  0  0  0
  -27.4413    2.3515   17.5907 C   0  0  0  0  0  0  0  0  0  0  0  0
  -28.5241    2.9308   17.1160 N   0  0  0  0  0  0  0  0  0  0  0  0
  -29.4706    2.7251   18.0998 C   0  0  0  0  0  0  0  0  0  0  0  0
  -30.8387    3.2222   17.9842 C   0  0  0  0  0  0  0  0  0  0  0  0
  -31.7845    2.9746   18.9903 C   0  0  0  0  0  0  0  0  0  0  0  0
  -33.0923    3.4539   18.8727 C   0  0  0  0  0  0  0  0  0  0  0  0
  -33.4684    4.1859   17.7480 C   0  0  0  0  0  0  0  0  0  0  0  0
  -32.5395    4.4396   16.7405 C   0  0  0  0  0  0  0  0  0  0  0  0
  -31.2318    3.9602   16.8579 C   0  0  0  0  0  0  0  0  0  0  0  0
  -29.0066    2.0293   19.1505 N   0  0  0  0  0  0  0  0  0  0  0  0
  -27.7336    1.7990   18.8016 N   0  0  0  0  0  0  0  0  0  0  0  0
  -24.9811   -0.4867   17.7725 C   0  0  0  0  0  0  0  0  0  0  0  0
  -24.7267   -1.8174   18.1877 C   0  0  0  0  0  0  0  0  0  0  0  0
  -24.1841   -2.3067   19.2803 N   0  0  0  0  0  0  0  0  0  0  0  0
  -24.2557   -3.6771   19.2028 N   0  0  0  0  0  0  0  0  0  0  0  0
  -24.8473   -3.9809   18.0686 C   0  0  0  0  0  0  0  0  0  0  0  0
  -25.1094   -2.8471   17.3465 N   0  0  0  0  0  0  0  0  0  0  0  0
  -23.7574   -4.3474   12.4024 H   0  0  0  0  0  0  0  0  0  0  0  0
  -21.5222   -4.5745   13.3274 H   0  0  0  0  0  0  0  0  0  0  0  0
  -19.5036   -3.4975   14.1866 H   0  0  0  0  0  0  0  0  0  0  0  0
  -19.5341   -1.1179   14.8622 H   0  0  0  0  0  0  0  0  0  0  0  0
  -21.6298    0.1926   14.6688 H   0  0  0  0  0  0  0  0  0  0  0  0
  -23.6755   -0.8496   13.8604 H   0  0  0  0  0  0  0  0  0  0  0  0
  -25.3097   -1.7907   12.9516 H   0  0  0  0  0  0  0  0  0  0  0  0
  -24.9966   -2.6298   11.4625 H   0  0  0  0  0  0  0  0  0  0  0  0
  -26.4720   -4.5141   12.2428 H   0  0  0  0  0  0  0  0  0  0  0  0
  -27.3122   -2.9907   12.0756 H   0  0  0  0  0  0  0  0  0  0  0  0
  -27.7267   -2.7694   14.3349 H   0  0  0  0  0  0  0  0  0  0  0  0
  -27.6685   -4.5068   14.2337 H   0  0  0  0  0  0  0  0  0  0  0  0
  -26.4050   -1.0960   14.7755 H   0  0  0  0  0  0  0  0  0  0  0  0
  -26.6174    1.0284   15.3789 H   0  0  0  0  0  0  0  0  0  0  0  0
  -25.9712    3.0997   16.2857 H   0  0  0  0  0  0  0  0  0  0  0  0
  -25.3078    2.3229   17.7001 H   0  0  0  0  0  0  0  0  0  0  0  0
  -31.5064    2.4045   19.8748 H   0  0  0  0  0  0  0  0  0  0  0  0
  -33.8144    3.2549   19.6604 H   0  0  0  0  0  0  0  0  0  0  0  0
  -34.4855    4.5592   17.6574 H   0  0  0  0  0  0  0  0  0  0  0  0
  -32.8305    5.0111   15.8631 H   0  0  0  0  0  0  0  0  0  0  0  0
  -30.5173    4.1679   16.0640 H   0  0  0  0  0  0  0  0  0  0  0  0
  -27.1399    1.2569   19.4201 H   0  0  0  0  0  0  0  0  0  0  0  0
  -24.6459    0.2990   18.4368 H   0  0  0  0  0  0  0  0  0  0  0  0
  -25.0956   -4.9734   17.7230 H   0  0  0  0  0  0  0  0  0  0  0  0
  1  2  2  0
  2  3  2  0
  2  4  1  0
  4  5  1  0
  5  6  2  0
  6  7  1  0
  7  8  2  0
  8  9  1  0
  9 10  2  0
  4 11  1  0
 11 12  1  0
 12 13  1  0
 13 14  1  0
 14 15  1  0
 15 16  2  0
 16 17  1  0
 17 18  1  0
 18 19  1  0
 19 20  1  0
 20 21  2  0
 21 22  1  0
 22 23  1  0
 23 24  2  0
 24 25  1  0
 25 26  2  0
 26 27  1  0
 27 28  2  0
 22 29  2  0
 29 30  1  0
 17 31  2  0
 31 32  1  0
 32 33  2  0
 33 34  1  0
 34 35  2  0
 35 36  1  0
 14  2  1  0
 36 15  1  0
 10  5  1  0
 30 20  1  0
 36 32  1  0
 28 23  1  0
  4 37  1  0
  6 38  1  0
  7 39  1  0
  8 40  1  0
  9 41  1  0
 10 42  1  0
 11 43  1  0
 11 44  1  0
 12 45  1  0
 12 46  1  0
 13 47  1  0
 13 48  1  0
 16 49  1  0
 18 50  1  0
 19 51  1  0
 19 52  1  0
 24 53  1  0
 25 54  1  0
 26 55  1  0
 27 56  1  0
 28 57  1  0
 30 58  1  0
 31 59  1  0
 35 60  1  0
M  END
>  <Energy>  (739) 
96.136747094273176

>  <compound_id>  (739) 
4331

>  <target_id>  (739) 
1

>  <reference_id>  (739) 
192

>  <inspiration_ids>  (739) 
[151, 192]

>  <energy_score>  (739) 
-54.95610019148246

>  <distance_score>  (739) 
2.407436126696153

>  <path>  (739) 
/opt/xchem-fragalysis-2/maxwin/BulkDock/SCRATCH/505735/C4331-P192/C4331-P192.minimised.mol

>  <scratch_subdir>  (739) 
/opt/xchem-fragalysis-2/maxwin/BulkDock/SCRATCH/505735/C4331-P192

>  <fragmenstein_runtime>  (739) 
38.53796148300171

>  <fragmenstein_outcome>  (739) 
too moved

>  <fragmenstein_mode>  (739) 
expansion

>  <fragmenstein_error>  (739) 


$$$$
C4333-P152
     RDKit          3D

 56 60  0  0  0  0  0  0  0  0999 V2000
   -1.5613   -7.8320   34.3639 N   0  0  0  0  0  0  0  0  0  0  0  0
   -1.2145   -7.4765   33.1224 C   0  0  0  0  0  0  0  0  0  0  0  0
   -1.5907   -8.1111   32.0302 N   0  0  0  0  0  0  0  0  0  0  0  0
   -1.4487   -7.2603   30.9701 N   0  0  0  0  0  0  0  0  0  0  0  0
   -1.0276   -6.1146   31.4593 C   0  0  0  0  0  0  0  0  0  0  0  0
   -0.5576   -6.3438   32.7474 N   0  0  0  0  0  0  0  0  0  0  0  0
    0.3887   -5.3352   33.2740 C   0  0  0  0  0  0  0  0  0  0  0  0
    1.1273   -5.3301   34.5992 N   0  0  0  0  0  0  0  0  0  0  0  0
    0.6562   -4.1692   35.4394 C   0  0  0  0  0  0  0  0  0  0  0  0
    1.6643   -3.8200   36.5241 C   0  0  0  0  0  0  0  0  0  0  0  0
    1.8847   -4.9566   37.5130 C   0  0  0  0  0  0  0  0  0  0  0  0
    2.4512   -6.1972   36.8141 C   0  0  0  0  0  0  0  0  0  0  0  0
    2.7135   -7.3303   37.7910 C   0  0  0  0  0  0  0  0  0  0  0  0
    4.0021   -7.8830   37.8689 C   0  0  0  0  0  0  0  0  0  0  0  0
    4.2967   -8.8883   38.7931 C   0  0  0  0  0  0  0  0  0  0  0  0
    3.3089   -9.3584   39.6528 C   0  0  0  0  0  0  0  0  0  0  0  0
    2.0255   -8.8255   39.5880 C   0  0  0  0  0  0  0  0  0  0  0  0
    1.7285   -7.8191   38.6670 C   0  0  0  0  0  0  0  0  0  0  0  0
    1.3170   -6.7516   35.5177 S   0  0  0  0  0  0  0  0  0  0  0  0
    0.0368   -7.0259   36.1388 O   0  0  0  0  0  0  0  0  0  0  0  0
    1.9576   -7.7266   34.6635 O   0  0  0  0  0  0  0  0  0  0  0  0
    1.2846   -4.7918   31.9443 C   0  0  0  0  0  0  0  0  0  0  0  0
    0.2434   -3.9143   31.2396 C   0  0  0  0  0  0  0  0  0  0  0  0
   -0.8707   -4.7948   30.7417 C   0  0  0  0  0  0  0  0  0  0  0  0
    2.5289   -3.9205   32.2145 C   0  0  0  0  0  0  0  0  0  0  0  0
    3.4420   -3.6529   31.0715 N   0  0  0  0  0  0  0  0  0  0  0  0
    2.9908   -4.0285   29.7337 C   0  0  0  0  0  0  0  0  0  0  0  0
    2.2232   -5.3535   29.6751 C   0  0  0  0  0  0  0  0  0  0  0  0
    1.7236   -5.8373   30.9708 N   0  0  0  0  0  0  0  0  0  0  0  0
   -1.7354   -8.8349   34.5008 H   0  0  0  0  0  0  0  0  0  0  0  0
   -1.0970   -7.4554   35.1896 H   0  0  0  0  0  0  0  0  0  0  0  0
   -0.3609   -4.5454   33.4465 H   0  0  0  0  0  0  0  0  0  0  0  0
   -0.3323   -4.3849   35.8619 H   0  0  0  0  0  0  0  0  0  0  0  0
    0.5550   -3.2792   34.8054 H   0  0  0  0  0  0  0  0  0  0  0  0
    2.6216   -3.5450   36.0638 H   0  0  0  0  0  0  0  0  0  0  0  0
    1.3095   -2.9377   37.0697 H   0  0  0  0  0  0  0  0  0  0  0  0
    2.5815   -4.6223   38.2917 H   0  0  0  0  0  0  0  0  0  0  0  0
    0.9347   -5.1751   38.0158 H   0  0  0  0  0  0  0  0  0  0  0  0
    3.3810   -5.9354   36.2928 H   0  0  0  0  0  0  0  0  0  0  0  0
    4.7986   -7.5349   37.2139 H   0  0  0  0  0  0  0  0  0  0  0  0
    5.2980   -9.3090   38.8403 H   0  0  0  0  0  0  0  0  0  0  0  0
    3.5279  -10.1514   40.3635 H   0  0  0  0  0  0  0  0  0  0  0  0
    1.2457   -9.2174   40.2389 H   0  0  0  0  0  0  0  0  0  0  0  0
    0.7101   -7.4368   38.6467 H   0  0  0  0  0  0  0  0  0  0  0  0
    0.6164   -3.3074   30.4120 H   0  0  0  0  0  0  0  0  0  0  0  0
   -0.1538   -3.1625   31.9372 H   0  0  0  0  0  0  0  0  0  0  0  0
   -1.7763   -4.1929   30.8338 H   0  0  0  0  0  0  0  0  0  0  0  0
   -0.6983   -4.9861   29.6775 H   0  0  0  0  0  0  0  0  0  0  0  0
    2.2181   -2.9559   32.6348 H   0  0  0  0  0  0  0  0  0  0  0  0
    3.1443   -4.4044   32.9821 H   0  0  0  0  0  0  0  0  0  0  0  0
    3.7966   -2.6989   31.0957 H   0  0  0  0  0  0  0  0  0  0  0  0
    2.3780   -3.2190   29.3227 H   0  0  0  0  0  0  0  0  0  0  0  0
    3.8680   -4.0940   29.0795 H   0  0  0  0  0  0  0  0  0  0  0  0
    2.8832   -6.1213   29.2573 H   0  0  0  0  0  0  0  0  0  0  0  0
    1.3988   -5.2444   28.9684 H   0  0  0  0  0  0  0  0  0  0  0  0
    1.0395   -6.5784   30.8240 H   0  0  0  0  0  0  0  0  0  0  0  0
  1  2  1  0
  2  3  2  0
  3  4  1  0
  4  5  2  0
  5  6  1  0
  6  7  1  0
  7  8  1  0
  8  9  1  0
  9 10  1  0
 10 11  1  0
 11 12  1  0
 12 13  1  0
 13 14  2  0
 14 15  1  0
 15 16  2  0
 16 17  1  0
 17 18  2  0
 12 19  1  0
 19 20  2  0
 19 21  2  0
  7 22  1  0
 22 23  1  0
 23 24  1  0
 22 25  1  0
 25 26  1  0
 26 27  1  0
 27 28  1  0
 28 29  1  0
  6  2  1  0
 19  8  1  0
 29 22  1  0
 24  5  1  0
 18 13  1  0
  1 30  1  0
  1 31  1  0
  7 32  1  0
  9 33  1  0
  9 34  1  0
 10 35  1  0
 10 36  1  0
 11 37  1  0
 11 38  1  0
 12 39  1  0
 14 40  1  0
 15 41  1  0
 16 42  1  0
 17 43  1  0
 18 44  1  0
 23 45  1  0
 23 46  1  0
 24 47  1  0
 24 48  1  0
 25 49  1  0
 25 50  1  0
 26 51  1  0
 27 52  1  0
 27 53  1  0
 28 54  1  0
 28 55  1  0
 29 56  1  0
M  END
>  <Energy>  (740) 
133.54550830225753

>  <compound_id>  (740) 
4333

>  <target_id>  (740) 
1

>  <reference_id>  (740) 
152

>  <inspiration_ids>  (740) 
[152, 40]

>  <energy_score>  (740) 
-37.72758493132437

>  <distance_score>  (740) 
1.6876452959030968

>  <path>  (740) 
/opt/xchem-fragalysis-2/maxwin/BulkDock/SCRATCH/505735/C4333-P152/C4333-P152.minimised.mol

>  <scratch_subdir>  (740) 
/opt/xchem-fragalysis-2/maxwin/BulkDock/SCRATCH/505735/C4333-P152

>  <fragmenstein_runtime>  (740) 
7.386929988861084

>  <fragmenstein_outcome>  (740) 
too moved

>  <fragmenstein_mode>  (740) 
expansion

>  <fragmenstein_error>  (740) 


$$$$
C4333-P40
     RDKit          3D

 56 60  0  0  0  0  0  0  0  0999 V2000
   -1.5311   -7.7693   34.2349 N   0  0  0  0  0  0  0  0  0  0  0  0
   -1.1665   -7.4232   32.9949 C   0  0  0  0  0  0  0  0  0  0  0  0
   -1.5685   -8.0436   31.9016 N   0  0  0  0  0  0  0  0  0  0  0  0
   -1.4348   -7.1804   30.8481 N   0  0  0  0  0  0  0  0  0  0  0  0
   -0.9528   -6.0607   31.3426 C   0  0  0  0  0  0  0  0  0  0  0  0
   -0.4895   -6.2999   32.6327 N   0  0  0  0  0  0  0  0  0  0  0  0
    0.3852   -5.2515   33.2145 C   0  0  0  0  0  0  0  0  0  0  0  0
    1.1393   -5.2710   34.5417 N   0  0  0  0  0  0  0  0  0  0  0  0
    0.6538   -4.1259   35.3974 C   0  0  0  0  0  0  0  0  0  0  0  0
    1.6430   -3.7931   36.5051 C   0  0  0  0  0  0  0  0  0  0  0  0
    1.8407   -4.9419   37.4852 C   0  0  0  0  0  0  0  0  0  0  0  0
    2.4253   -6.1708   36.7828 C   0  0  0  0  0  0  0  0  0  0  0  0
    2.6576   -7.3307   37.7404 C   0  0  0  0  0  0  0  0  0  0  0  0
    3.9310   -7.9179   37.8107 C   0  0  0  0  0  0  0  0  0  0  0  0
    4.1889   -8.9659   38.6980 C   0  0  0  0  0  0  0  0  0  0  0  0
    3.1795   -9.4470   39.5273 C   0  0  0  0  0  0  0  0  0  0  0  0
    1.9110   -8.8783   39.4733 C   0  0  0  0  0  0  0  0  0  0  0  0
    1.6524   -7.8263   38.5910 C   0  0  0  0  0  0  0  0  0  0  0  0
    1.3273   -6.7071   35.4467 S   0  0  0  0  0  0  0  0  0  0  0  0
    0.0411   -7.0021   36.0467 O   0  0  0  0  0  0  0  0  0  0  0  0
    2.0106   -7.6679   34.6107 O   0  0  0  0  0  0  0  0  0  0  0  0
    1.2712   -4.6431   31.9195 C   0  0  0  0  0  0  0  0  0  0  0  0
    0.2373   -3.8013   31.1880 C   0  0  0  0  0  0  0  0  0  0  0  0
   -0.8492   -4.7082   30.6833 C   0  0  0  0  0  0  0  0  0  0  0  0
    2.5090   -3.7572   32.1833 C   0  0  0  0  0  0  0  0  0  0  0  0
    3.5145   -3.7017   31.0824 N   0  0  0  0  0  0  0  0  0  0  0  0
    3.0276   -3.9845   29.7266 C   0  0  0  0  0  0  0  0  0  0  0  0
    2.2024   -5.2729   29.6597 C   0  0  0  0  0  0  0  0  0  0  0  0
    1.7243   -5.7199   30.9816 N   0  0  0  0  0  0  0  0  0  0  0  0
   -1.6753   -8.7832   34.3439 H   0  0  0  0  0  0  0  0  0  0  0  0
   -1.0339   -7.4322   35.0552 H   0  0  0  0  0  0  0  0  0  0  0  0
   -0.4028   -4.5035   33.4056 H   0  0  0  0  0  0  0  0  0  0  0  0
   -0.3407   -4.3511   35.8008 H   0  0  0  0  0  0  0  0  0  0  0  0
    0.5600   -3.2270   34.7749 H   0  0  0  0  0  0  0  0  0  0  0  0
    2.6094   -3.5149   36.0664 H   0  0  0  0  0  0  0  0  0  0  0  0
    1.2797   -2.9166   37.0545 H   0  0  0  0  0  0  0  0  0  0  0  0
    2.5188   -4.6180   38.2846 H   0  0  0  0  0  0  0  0  0  0  0  0
    0.8793   -5.1673   37.9621 H   0  0  0  0  0  0  0  0  0  0  0  0
    3.3699   -5.9012   36.2931 H   0  0  0  0  0  0  0  0  0  0  0  0
    4.7429   -7.5664   37.1766 H   0  0  0  0  0  0  0  0  0  0  0  0
    5.1797   -9.4122   38.7401 H   0  0  0  0  0  0  0  0  0  0  0  0
    3.3793  -10.2687   40.2109 H   0  0  0  0  0  0  0  0  0  0  0  0
    1.1197   -9.2573   40.1161 H   0  0  0  0  0  0  0  0  0  0  0  0
    0.6471   -7.4095   38.5776 H   0  0  0  0  0  0  0  0  0  0  0  0
    0.6173   -3.1965   30.3611 H   0  0  0  0  0  0  0  0  0  0  0  0
   -0.1858   -3.0525   31.8738 H   0  0  0  0  0  0  0  0  0  0  0  0
   -1.7620   -4.1348   30.8696 H   0  0  0  0  0  0  0  0  0  0  0  0
   -0.7251   -4.8392   29.6029 H   0  0  0  0  0  0  0  0  0  0  0  0
    2.1981   -2.7332   32.4232 H   0  0  0  0  0  0  0  0  0  0  0  0
    3.0502   -4.1337   33.0582 H   0  0  0  0  0  0  0  0  0  0  0  0
    4.0150   -2.8132   31.1054 H   0  0  0  0  0  0  0  0  0  0  0  0
    2.4493   -3.1295   29.3619 H   0  0  0  0  0  0  0  0  0  0  0  0
    3.8912   -4.0749   29.0581 H   0  0  0  0  0  0  0  0  0  0  0  0
    2.8245   -6.0758   29.2466 H   0  0  0  0  0  0  0  0  0  0  0  0
    1.3722   -5.1529   28.9576 H   0  0  0  0  0  0  0  0  0  0  0  0
    2.5418   -6.0560   31.4697 H   0  0  0  0  0  0  0  0  0  0  0  0
  1  2  1  0
  2  3  2  0
  3  4  1  0
  4  5  2  0
  5  6  1  0
  6  7  1  0
  7  8  1  0
  8  9  1  0
  9 10  1  0
 10 11  1  0
 11 12  1  0
 12 13  1  0
 13 14  2  0
 14 15  1  0
 15 16  2  0
 16 17  1  0
 17 18  2  0
 12 19  1  0
 19 20  2  0
 19 21  2  0
  7 22  1  0
 22 23  1  0
 23 24  1  0
 22 25  1  0
 25 26  1  0
 26 27  1  0
 27 28  1  0
 28 29  1  0
  6  2  1  0
 19  8  1  0
 29 22  1  0
 24  5  1  0
 18 13  1  0
  1 30  1  0
  1 31  1  0
  7 32  1  0
  9 33  1  0
  9 34  1  0
 10 35  1  0
 10 36  1  0
 11 37  1  0
 11 38  1  0
 12 39  1  0
 14 40  1  0
 15 41  1  0
 16 42  1  0
 17 43  1  0
 18 44  1  0
 23 45  1  0
 23 46  1  0
 24 47  1  0
 24 48  1  0
 25 49  1  0
 25 50  1  0
 26 51  1  0
 27 52  1  0
 27 53  1  0
 28 54  1  0
 28 55  1  0
 29 56  1  0
M  END
>  <Energy>  (741) 
131.6504030361387

>  <compound_id>  (741) 
4333

>  <target_id>  (741) 
1

>  <reference_id>  (741) 
40

>  <inspiration_ids>  (741) 
[152, 40]

>  <energy_score>  (741) 
-39.6226901974448

>  <distance_score>  (741) 
1.7170849314616037

>  <path>  (741) 
/opt/xchem-fragalysis-2/maxwin/BulkDock/SCRATCH/505735/C4333-P40/C4333-P40.minimised.mol

>  <scratch_subdir>  (741) 
/opt/xchem-fragalysis-2/maxwin/BulkDock/SCRATCH/505735/C4333-P40

>  <fragmenstein_runtime>  (741) 
6.315872430801392

>  <fragmenstein_outcome>  (741) 
too moved

>  <fragmenstein_mode>  (741) 
expansion

>  <fragmenstein_error>  (741) 


$$$$
C4333-P152
     RDKit          2D

  0  0  0  0  0  0  0  0  0  0999 V2000
M  END
>  <compound_id>  (742) 
4333

>  <target_id>  (742) 
1

>  <reference_id>  (742) 
152

>  <inspiration_ids>  (742) 
[152, 41]

>  <energy_score>  (742) 
nan

>  <distance_score>  (742) 
nan

>  <path>  (742) 
/opt/xchem-fragalysis-2/maxwin/BulkDock/SCRATCH/505735/C4333-P152/C4333-P152.minimised.mol

>  <scratch_subdir>  (742) 
/opt/xchem-fragalysis-2/maxwin/BulkDock/SCRATCH/505735/C4333-P152

>  <fragmenstein_runtime>  (742) 
0.4504814147949219

>  <fragmenstein_outcome>  (742) 
too distant

>  <fragmenstein_mode>  (742) 
expansion

>  <fragmenstein_error>  (742) 
DistanceError: hit0+hit1

$$$$
C2336-P152
     RDKit          3D

 66 72  0  0  0  0  0  0  0  0999 V2000
   -6.1699   -7.2578   31.9496 C   0  0  0  0  0  0  0  0  0  0  0  0
   -5.0097   -8.1456   32.2034 C   0  0  0  0  0  0  0  0  0  0  0  0
   -4.7652   -8.7146   33.6296 C   0  0  0  0  0  0  0  0  0  0  0  0
   -4.2688   -8.0707   34.8477 N   0  0  0  0  0  0  0  0  0  0  0  0
   -5.3506   -7.9708   36.0031 C   0  0  0  0  0  0  0  0  0  0  0  0
   -6.8745   -6.8258   35.2690 C   0  0  0  0  0  0  0  0  0  0  0  0
   -7.9071   -7.0217   34.1730 C   0  0  0  0  0  0  0  0  0  0  0  0
   -9.4809   -7.0485   33.8962 C   0  0  0  0  0  0  0  0  0  0  0  0
  -10.3526   -6.5232   34.8193 C   0  0  0  0  0  0  0  0  0  0  0  0
   -9.5986   -5.8895   35.6974 N   0  0  0  0  0  0  0  0  0  0  0  0
   -8.0038   -6.3823   35.7344 C   0  0  0  0  0  0  0  0  0  0  0  0
   -4.8772   -9.1788   36.3984 N   0  0  0  0  0  0  0  0  0  0  0  0
   -3.3192   -9.2776   36.0759 N   0  0  0  0  0  0  0  0  0  0  0  0
   -2.9300   -8.3309   35.2020 C   0  0  0  0  0  0  0  0  0  0  0  0
   -1.7511   -7.7805   34.3207 C   0  0  0  0  0  0  0  0  0  0  0  0
   -1.6247   -8.3531   32.9307 C   0  0  0  0  0  0  0  0  0  0  0  0
   -0.9525   -7.8847   31.8784 C   0  0  0  0  0  0  0  0  0  0  0  0
   -0.2049   -6.7362   32.0476 C   0  0  0  0  0  0  0  0  0  0  0  0
    0.5259   -6.0439   31.2108 N   0  0  0  0  0  0  0  0  0  0  0  0
    1.0970   -5.0347   31.9213 N   0  0  0  0  0  0  0  0  0  0  0  0
    0.6832   -5.1393   33.1655 C   0  0  0  0  0  0  0  0  0  0  0  0
   -0.1156   -6.2570   33.3310 N   0  0  0  0  0  0  0  0  0  0  0  0
   -0.7762   -6.7822   34.5243 C   0  0  0  0  0  0  0  0  0  0  0  0
   -0.1315   -6.0206   35.7517 C   0  0  0  0  0  0  0  0  0  0  0  0
   -0.9103   -6.0718   37.0377 C   0  0  0  0  0  0  0  0  0  0  0  0
   -0.2707   -5.5139   38.3115 C   0  0  0  0  0  0  0  0  0  0  0  0
    1.1337   -6.0336   38.6071 C   0  0  0  0  0  0  0  0  0  0  0  0
    1.4651   -7.3006   37.8212 C   0  0  0  0  0  0  0  0  0  0  0  0
    2.7247   -7.9640   38.3425 C   0  0  0  0  0  0  0  0  0  0  0  0
    4.0287   -7.5523   38.0436 C   0  0  0  0  0  0  0  0  0  0  0  0
    5.1299   -8.1971   38.6160 C   0  0  0  0  0  0  0  0  0  0  0  0
    4.9470   -9.2458   39.5135 C   0  0  0  0  0  0  0  0  0  0  0  0
    3.6608   -9.6469   39.8498 C   0  0  0  0  0  0  0  0  0  0  0  0
    2.5636   -9.0054   39.2770 C   0  0  0  0  0  0  0  0  0  0  0  0
    1.5304   -6.9009   36.0599 S   0  0  0  0  0  0  0  0  0  0  0  0
    1.5618   -8.1256   35.2797 O   0  0  0  0  0  0  0  0  0  0  0  0
    2.5941   -5.9383   35.8471 O   0  0  0  0  0  0  0  0  0  0  0  0
    0.1367   -4.5031   35.4744 C   0  0  0  0  0  0  0  0  0  0  0  0
    0.9520   -4.1796   34.2375 C   0  0  0  0  0  0  0  0  0  0  0  0
   -6.9020   -6.8584   32.5320 H   0  0  0  0  0  0  0  0  0  0  0  0
   -6.5394   -6.6938   31.1010 H   0  0  0  0  0  0  0  0  0  0  0  0
   -4.2404   -8.4612   31.5060 H   0  0  0  0  0  0  0  0  0  0  0  0
   -3.7277   -8.8186   33.3689 H   0  0  0  0  0  0  0  0  0  0  0  0
   -5.3358   -9.6178   33.9028 H   0  0  0  0  0  0  0  0  0  0  0  0
   -7.7765   -7.6988   33.3701 H   0  0  0  0  0  0  0  0  0  0  0  0
   -9.8121   -7.5458   32.9982 H   0  0  0  0  0  0  0  0  0  0  0  0
  -11.4180   -6.4803   34.8814 H   0  0  0  0  0  0  0  0  0  0  0  0
   -8.1221   -6.9252   36.7136 H   0  0  0  0  0  0  0  0  0  0  0  0
   -2.0613   -9.3123   32.7441 H   0  0  0  0  0  0  0  0  0  0  0  0
   -0.8749   -8.4185   30.9411 H   0  0  0  0  0  0  0  0  0  0  0  0
   -1.8285   -5.5171   36.8695 H   0  0  0  0  0  0  0  0  0  0  0  0
   -1.1249   -7.1147   37.2094 H   0  0  0  0  0  0  0  0  0  0  0  0
   -0.2616   -4.4181   38.2983 H   0  0  0  0  0  0  0  0  0  0  0  0
   -0.9218   -5.7810   39.1537 H   0  0  0  0  0  0  0  0  0  0  0  0
    1.2194   -6.2113   39.6868 H   0  0  0  0  0  0  0  0  0  0  0  0
    1.8620   -5.2446   38.3783 H   0  0  0  0  0  0  0  0  0  0  0  0
    0.6549   -8.0352   37.9092 H   0  0  0  0  0  0  0  0  0  0  0  0
    4.2281   -6.7205   37.3735 H   0  0  0  0  0  0  0  0  0  0  0  0
    6.1363   -7.8711   38.3639 H   0  0  0  0  0  0  0  0  0  0  0  0
    5.8062   -9.7421   39.9562 H   0  0  0  0  0  0  0  0  0  0  0  0
    3.5033  -10.4580   40.5569 H   0  0  0  0  0  0  0  0  0  0  0  0
    1.5683   -9.3417   39.5704 H   0  0  0  0  0  0  0  0  0  0  0  0
    0.6402   -4.0230   36.3212 H   0  0  0  0  0  0  0  0  0  0  0  0
   -0.8336   -3.9963   35.3793 H   0  0  0  0  0  0  0  0  0  0  0  0
    0.6950   -3.1685   33.8978 H   0  0  0  0  0  0  0  0  0  0  0  0
    2.0239   -4.1471   34.4491 H   0  0  0  0  0  0  0  0  0  0  0  0
  1  2  2  0
  2  3  1  0
  3  4  1  0
  4  5  1  0
  5  6  1  0
  6  7  2  0
  7  8  1  0
  8  9  2  0
  9 10  1  0
 10 11  2  0
  5 12  2  0
 12 13  1  0
 13 14  2  0
 14 15  1  0
 15 16  1  0
 16 17  2  0
 17 18  1  0
 18 19  2  0
 19 20  1  0
 20 21  2  0
 21 22  1  0
 22 23  1  0
 23 24  1  0
 24 25  1  0
 25 26  1  0
 26 27  1  0
 27 28  1  0
 28 29  1  0
 29 30  2  0
 30 31  1  0
 31 32  2  0
 32 33  1  0
 33 34  2  0
 28 35  1  0
 35 36  2  0
 35 37  2  0
 24 38  1  0
 38 39  1  0
 14  4  1  0
 23 15  2  0
 35 24  1  0
 11  6  1  0
 22 18  1  0
 34 29  1  0
 39 21  1  0
  1 40  1  0
  1 41  1  0
  2 42  1  0
  3 43  1  0
  3 44  1  0
  7 45  1  0
  8 46  1  0
  9 47  1  0
 11 48  1  0
 16 49  1  0
 17 50  1  0
 25 51  1  0
 25 52  1  0
 26 53  1  0
 26 54  1  0
 27 55  1  0
 27 56  1  0
 28 57  1  0
 30 58  1  0
 31 59  1  0
 32 60  1  0
 33 61  1  0
 34 62  1  0
 38 63  1  0
 38 64  1  0
 39 65  1  0
 39 66  1  0
M  END
>  <Energy>  (743) 
646.77775314096539

>  <compound_id>  (743) 
2336

>  <target_id>  (743) 
1

>  <reference_id>  (743) 
152

>  <inspiration_ids>  (743) 
[152, 78]

>  <energy_score>  (743) 
359.10360581792975

>  <distance_score>  (743) 
1.5722292183964577

>  <path>  (743) 
/opt/xchem-fragalysis-2/maxwin/BulkDock/SCRATCH/505735/C2336-P152/C2336-P152.minimised.mol

>  <scratch_subdir>  (743) 
/opt/xchem-fragalysis-2/maxwin/BulkDock/SCRATCH/505735/C2336-P152

>  <fragmenstein_runtime>  (743) 
19.303484201431274

>  <fragmenstein_outcome>  (743) 
too moved

>  <fragmenstein_mode>  (743) 
expansion

>  <fragmenstein_error>  (743) 


$$$$
C2336-P78
     RDKit          3D

 66 72  0  0  0  0  0  0  0  0999 V2000
   -0.6710   -6.2700   37.9575 C   0  0  0  0  0  0  0  0  0  0  0  0
   -1.0852   -5.3301   37.1072 C   0  0  0  0  0  0  0  0  0  0  0  0
   -1.7215   -5.3978   35.7406 C   0  0  0  0  0  0  0  0  0  0  0  0
   -1.9075   -6.5906   34.8719 N   0  0  0  0  0  0  0  0  0  0  0  0
   -2.9076   -7.6644   34.9203 C   0  0  0  0  0  0  0  0  0  0  0  0
   -4.7320   -7.8626   34.8989 C   0  0  0  0  0  0  0  0  0  0  0  0
   -6.3706   -6.8105   34.3806 C   0  0  0  0  0  0  0  0  0  0  0  0
   -7.5054   -6.4478   34.9508 C   0  0  0  0  0  0  0  0  0  0  0  0
   -7.2004   -7.0943   36.0259 C   0  0  0  0  0  0  0  0  0  0  0  0
   -5.9111   -8.0054   36.6897 N   0  0  0  0  0  0  0  0  0  0  0  0
   -4.8773   -8.6040   36.0441 C   0  0  0  0  0  0  0  0  0  0  0  0
   -2.1653   -8.5166   35.6392 N   0  0  0  0  0  0  0  0  0  0  0  0
   -0.7886   -8.2850   35.4252 N   0  0  0  0  0  0  0  0  0  0  0  0
   -0.7059   -7.2560   34.6240 C   0  0  0  0  0  0  0  0  0  0  0  0
    0.0190   -6.9695   33.4305 C   0  0  0  0  0  0  0  0  0  0  0  0
   -0.6152   -7.4870   32.1903 C   0  0  0  0  0  0  0  0  0  0  0  0
   -0.1972   -7.1816   30.9563 C   0  0  0  0  0  0  0  0  0  0  0  0
    0.8942   -6.3088   30.8244 C   0  0  0  0  0  0  0  0  0  0  0  0
    1.5130   -5.8058   29.7813 N   0  0  0  0  0  0  0  0  0  0  0  0
    2.4781   -4.9444   30.2390 N   0  0  0  0  0  0  0  0  0  0  0  0
    2.4260   -4.9577   31.5493 C   0  0  0  0  0  0  0  0  0  0  0  0
    1.5134   -5.8861   31.9826 N   0  0  0  0  0  0  0  0  0  0  0  0
    1.1940   -6.2592   33.3141 C   0  0  0  0  0  0  0  0  0  0  0  0
    2.2579   -5.7096   34.3680 C   0  0  0  0  0  0  0  0  0  0  0  0
    1.6291   -4.6958   35.3265 C   0  0  0  0  0  0  0  0  0  0  0  0
    2.4111   -4.3495   36.5904 C   0  0  0  0  0  0  0  0  0  0  0  0
    2.7492   -5.5337   37.5048 C   0  0  0  0  0  0  0  0  0  0  0  0
    2.3693   -6.9176   36.9651 C   0  0  0  0  0  0  0  0  0  0  0  0
    2.7997   -8.0646   37.8591 C   0  0  0  0  0  0  0  0  0  0  0  0
    4.0965   -8.1612   38.3871 C   0  0  0  0  0  0  0  0  0  0  0  0
    4.4417   -9.2046   39.2487 C   0  0  0  0  0  0  0  0  0  0  0  0
    3.4985  -10.1680   39.5950 C   0  0  0  0  0  0  0  0  0  0  0  0
    2.2138  -10.0991   39.0659 C   0  0  0  0  0  0  0  0  0  0  0  0
    1.8703   -9.0638   38.1955 C   0  0  0  0  0  0  0  0  0  0  0  0
    2.9886   -7.1503   35.3188 S   0  0  0  0  0  0  0  0  0  0  0  0
    2.4676   -8.3811   34.7608 O   0  0  0  0  0  0  0  0  0  0  0  0
    4.4294   -6.9736   35.3806 O   0  0  0  0  0  0  0  0  0  0  0  0
    3.5088   -5.0223   33.6954 C   0  0  0  0  0  0  0  0  0  0  0  0
    3.1726   -4.1384   32.5123 C   0  0  0  0  0  0  0  0  0  0  0  0
   -0.2866   -6.0106   38.9405 H   0  0  0  0  0  0  0  0  0  0  0  0
   -0.7097   -7.3219   37.7127 H   0  0  0  0  0  0  0  0  0  0  0  0
   -1.0154   -4.3049   37.4788 H   0  0  0  0  0  0  0  0  0  0  0  0
   -1.2884   -4.6323   35.0855 H   0  0  0  0  0  0  0  0  0  0  0  0
   -2.6780   -5.0740   36.0177 H   0  0  0  0  0  0  0  0  0  0  0  0
   -6.9136   -7.2307   33.4091 H   0  0  0  0  0  0  0  0  0  0  0  0
   -8.4929   -6.5032   34.5489 H   0  0  0  0  0  0  0  0  0  0  0  0
   -8.0186   -7.1415   36.7129 H   0  0  0  0  0  0  0  0  0  0  0  0
   -4.2527   -9.3590   36.4696 H   0  0  0  0  0  0  0  0  0  0  0  0
   -1.4361   -8.1934   32.3138 H   0  0  0  0  0  0  0  0  0  0  0  0
   -0.6619   -7.5969   30.0716 H   0  0  0  0  0  0  0  0  0  0  0  0
    1.3799   -3.7692   34.7953 H   0  0  0  0  0  0  0  0  0  0  0  0
    0.6946   -5.1064   35.6484 H   0  0  0  0  0  0  0  0  0  0  0  0
    3.3348   -3.8201   36.3325 H   0  0  0  0  0  0  0  0  0  0  0  0
    1.8245   -3.6253   37.1705 H   0  0  0  0  0  0  0  0  0  0  0  0
    2.2647   -5.3824   38.4781 H   0  0  0  0  0  0  0  0  0  0  0  0
    3.8251   -5.4793   37.7119 H   0  0  0  0  0  0  0  0  0  0  0  0
    1.2972   -6.9841   36.8283 H   0  0  0  0  0  0  0  0  0  0  0  0
    4.8643   -7.4350   38.1283 H   0  0  0  0  0  0  0  0  0  0  0  0
    5.4516   -9.2681   39.6461 H   0  0  0  0  0  0  0  0  0  0  0  0
    3.7689  -10.9811   40.2633 H   0  0  0  0  0  0  0  0  0  0  0  0
    1.4785  -10.8608   39.3147 H   0  0  0  0  0  0  0  0  0  0  0  0
    0.8657   -9.0608   37.7740 H   0  0  0  0  0  0  0  0  0  0  0  0
    4.2002   -5.7868   33.3279 H   0  0  0  0  0  0  0  0  0  0  0  0
    4.0881   -4.4441   34.4227 H   0  0  0  0  0  0  0  0  0  0  0  0
    2.5762   -3.2730   32.8191 H   0  0  0  0  0  0  0  0  0  0  0  0
    4.0926   -3.7578   32.0557 H   0  0  0  0  0  0  0  0  0  0  0  0
  1  2  2  0
  2  3  1  0
  3  4  1  0
  4  5  1  0
  5  6  1  0
  6  7  2  0
  7  8  1  0
  8  9  2  0
  9 10  1  0
 10 11  2  0
  5 12  2  0
 12 13  1  0
 13 14  2  0
 14 15  1  0
 15 16  1  0
 16 17  2  0
 17 18  1  0
 18 19  2  0
 19 20  1  0
 20 21  2  0
 21 22  1  0
 22 23  1  0
 23 24  1  0
 24 25  1  0
 25 26  1  0
 26 27  1  0
 27 28  1  0
 28 29  1  0
 29 30  2  0
 30 31  1  0
 31 32  2  0
 32 33  1  0
 33 34  2  0
 28 35  1  0
 35 36  2  0
 35 37  2  0
 24 38  1  0
 38 39  1  0
 14  4  1  0
 23 15  2  0
 35 24  1  0
 11  6  1  0
 22 18  1  0
 34 29  1  0
 39 21  1  0
  1 40  1  0
  1 41  1  0
  2 42  1  0
  3 43  1  0
  3 44  1  0
  7 45  1  0
  8 46  1  0
  9 47  1  0
 11 48  1  0
 16 49  1  0
 17 50  1  0
 25 51  1  0
 25 52  1  0
 26 53  1  0
 26 54  1  0
 27 55  1  0
 27 56  1  0
 28 57  1  0
 30 58  1  0
 31 59  1  0
 32 60  1  0
 33 61  1  0
 34 62  1  0
 38 63  1  0
 38 64  1  0
 39 65  1  0
 39 66  1  0
M  END
>  <Energy>  (744) 
498.55935983340783

>  <compound_id>  (744) 
2336

>  <target_id>  (744) 
1

>  <reference_id>  (744) 
78

>  <inspiration_ids>  (744) 
[152, 78]

>  <energy_score>  (744) 
210.8852125103731

>  <distance_score>  (744) 
1.82697703962249

>  <path>  (744) 
/opt/xchem-fragalysis-2/maxwin/BulkDock/SCRATCH/505735/C2336-P78/C2336-P78.minimised.mol

>  <scratch_subdir>  (744) 
/opt/xchem-fragalysis-2/maxwin/BulkDock/SCRATCH/505735/C2336-P78

>  <fragmenstein_runtime>  (744) 
20.027597665786743

>  <fragmenstein_outcome>  (744) 
too moved

>  <fragmenstein_mode>  (744) 
expansion

>  <fragmenstein_error>  (744) 


$$$$
C4338-P152
     RDKit          3D

 75 81  0  0  0  0  0  0  0  0999 V2000
    2.8121   -0.9868   28.6272 O   0  0  0  0  0  0  0  0  0  0  0  0
    1.9828   -1.7077   29.1123 C   0  0  0  0  0  0  0  0  0  0  0  0
    0.6746   -1.4098   29.6540 N   0  0  0  0  0  0  0  0  0  0  0  0
   -0.0079   -0.1332   29.8698 C   0  0  0  0  0  0  0  0  0  0  0  0
   -0.5823   -0.1383   31.3242 C   0  0  0  0  0  0  0  0  0  0  0  0
    0.1254    0.1399   32.3973 N   0  0  0  0  0  0  0  0  0  0  0  0
   -0.6866   -0.0299   33.4933 N   0  0  0  0  0  0  0  0  0  0  0  0
   -1.8709   -0.4220   33.0711 C   0  0  0  0  0  0  0  0  0  0  0  0
   -3.0033   -0.6561   33.9141 C   0  0  0  0  0  0  0  0  0  0  0  0
   -3.0624   -0.4350   35.2777 C   0  0  0  0  0  0  0  0  0  0  0  0
   -4.3512   -0.7038   35.8247 C   0  0  0  0  0  0  0  0  0  0  0  0
   -5.2353   -1.1312   34.8610 C   0  0  0  0  0  0  0  0  0  0  0  0
   -4.4984   -1.2431   33.3246 S   0  0  0  0  0  0  0  0  0  0  0  0
   -1.8375   -0.5248   31.7052 N   0  0  0  0  0  0  0  0  0  0  0  0
    0.7447    1.1697   29.4991 C   0  0  0  0  0  0  0  0  0  0  0  0
    0.0913    1.0829   28.1055 C   0  0  0  0  0  0  0  0  0  0  0  0
   -1.0189    0.2349   28.7539 C   0  0  0  0  0  0  0  0  0  0  0  0
    2.3314   -3.2318   29.3273 C   0  0  0  0  0  0  0  0  0  0  0  0
    3.2656   -3.3724   30.9061 S   0  0  0  0  0  0  0  0  0  0  0  0
    3.5034   -3.7285   28.0172 Cl  0  0  0  0  0  0  0  0  0  0  0  0
    1.1520   -4.2206   29.2324 C   0  0  0  0  0  0  0  0  0  0  0  0
   -0.0175   -4.0093   30.1371 N   0  0  0  0  0  0  0  0  0  0  0  0
    0.0221   -4.4658   31.4593 C   0  0  0  0  0  0  0  0  0  0  0  0
    0.3741   -3.6377   32.4644 C   0  0  0  0  0  0  0  0  0  0  0  0
    0.4485   -4.0601   33.8417 C   0  0  0  0  0  0  0  0  0  0  0  0
    0.0811   -5.3108   34.1660 C   0  0  0  0  0  0  0  0  0  0  0  0
    0.2370   -5.5836   35.5499 N   0  0  0  0  0  0  0  0  0  0  0  0
   -0.5556   -4.8462   36.5558 C   0  0  0  0  0  0  0  0  0  0  0  0
    0.3611   -4.4009   37.6891 C   0  0  0  0  0  0  0  0  0  0  0  0
    1.0246   -5.5889   38.3878 C   0  0  0  0  0  0  0  0  0  0  0  0
    1.9053   -6.4142   37.4334 C   0  0  0  0  0  0  0  0  0  0  0  0
    2.6291   -7.5569   38.1126 C   0  0  0  0  0  0  0  0  0  0  0  0
    3.9964   -7.7581   37.8602 C   0  0  0  0  0  0  0  0  0  0  0  0
    4.7053   -8.7635   38.5212 C   0  0  0  0  0  0  0  0  0  0  0  0
    4.0607   -9.5810   39.4449 C   0  0  0  0  0  0  0  0  0  0  0  0
    2.7048   -9.4012   39.6978 C   0  0  0  0  0  0  0  0  0  0  0  0
    1.9905   -8.4056   39.0288 C   0  0  0  0  0  0  0  0  0  0  0  0
    0.9334   -7.0451   36.0424 S   0  0  0  0  0  0  0  0  0  0  0  0
   -0.1594   -7.8669   36.5111 O   0  0  0  0  0  0  0  0  0  0  0  0
    1.8051   -7.5140   34.9779 O   0  0  0  0  0  0  0  0  0  0  0  0
   -0.3685   -6.1677   33.1566 N   0  0  0  0  0  0  0  0  0  0  0  0
   -0.9150   -7.4233   33.1648 C   0  0  0  0  0  0  0  0  0  0  0  0
   -1.1856   -7.8156   31.9367 N   0  0  0  0  0  0  0  0  0  0  0  0
   -0.8417   -6.7964   31.0827 N   0  0  0  0  0  0  0  0  0  0  0  0
   -0.3914   -5.7971   31.8144 C   0  0  0  0  0  0  0  0  0  0  0  0
    0.2797   -2.2612   30.0581 H   0  0  0  0  0  0  0  0  0  0  0  0
   -2.2190   -0.0676   35.8527 H   0  0  0  0  0  0  0  0  0  0  0  0
   -4.6160   -0.5685   36.8664 H   0  0  0  0  0  0  0  0  0  0  0  0
   -6.2799   -1.3822   34.9825 H   0  0  0  0  0  0  0  0  0  0  0  0
   -2.5943   -0.8098   31.1030 H   0  0  0  0  0  0  0  0  0  0  0  0
    0.4242    2.0552   30.0637 H   0  0  0  0  0  0  0  0  0  0  0  0
    1.8366    1.1489   29.5157 H   0  0  0  0  0  0  0  0  0  0  0  0
    0.6926    0.5380   27.3713 H   0  0  0  0  0  0  0  0  0  0  0  0
   -0.2287    2.0324   27.6693 H   0  0  0  0  0  0  0  0  0  0  0  0
   -1.8648    0.8433   29.0914 H   0  0  0  0  0  0  0  0  0  0  0  0
   -1.3963   -0.5883   28.1403 H   0  0  0  0  0  0  0  0  0  0  0  0
    4.1620   -2.4198   30.5999 H   0  0  0  0  0  0  0  0  0  0  0  0
    1.4980   -5.2578   29.3353 H   0  0  0  0  0  0  0  0  0  0  0  0
    0.7363   -4.1227   28.2278 H   0  0  0  0  0  0  0  0  0  0  0  0
   -0.7774   -4.5307   29.6764 H   0  0  0  0  0  0  0  0  0  0  0  0
    0.6549   -2.6041   32.2863 H   0  0  0  0  0  0  0  0  0  0  0  0
    0.8222   -3.3359   34.5593 H   0  0  0  0  0  0  0  0  0  0  0  0
   -1.0389   -3.9654   36.1190 H   0  0  0  0  0  0  0  0  0  0  0  0
   -1.3569   -5.4871   36.9300 H   0  0  0  0  0  0  0  0  0  0  0  0
   -0.2245   -3.8351   38.4229 H   0  0  0  0  0  0  0  0  0  0  0  0
    1.1337   -3.7245   37.3033 H   0  0  0  0  0  0  0  0  0  0  0  0
    0.2355   -6.2080   38.8319 H   0  0  0  0  0  0  0  0  0  0  0  0
    1.6357   -5.2144   39.2185 H   0  0  0  0  0  0  0  0  0  0  0  0
    2.6482   -5.7432   36.9814 H   0  0  0  0  0  0  0  0  0  0  0  0
    4.5301   -7.1268   37.1522 H   0  0  0  0  0  0  0  0  0  0  0  0
    5.7639   -8.9060   38.3187 H   0  0  0  0  0  0  0  0  0  0  0  0
    4.6089  -10.3646   39.9610 H   0  0  0  0  0  0  0  0  0  0  0  0
    2.1861  -10.0568   40.3961 H   0  0  0  0  0  0  0  0  0  0  0  0
    0.9243   -8.3256   39.2338 H   0  0  0  0  0  0  0  0  0  0  0  0
   -1.1029   -7.9947   34.0627 H   0  0  0  0  0  0  0  0  0  0  0  0
  1  2  2  0
  2  3  1  0
  3  4  1  0
  4  5  1  0
  5  6  2  0
  6  7  1  0
  7  8  2  0
  8  9  1  0
  9 10  2  0
 10 11  1  0
 11 12  2  0
 12 13  1  0
  8 14  1  0
  4 15  1  0
 15 16  1  0
 16 17  1  0
  2 18  1  0
 18 19  1  0
 18 20  1  0
 18 21  1  0
 21 22  1  0
 22 23  1  0
 23 24  2  0
 24 25  1  0
 25 26  2  0
 26 27  1  0
 27 28  1  0
 28 29  1  0
 29 30  1  0
 30 31  1  0
 31 32  1  0
 32 33  2  0
 33 34  1  0
 34 35  2  0
 35 36  1  0
 36 37  2  0
 31 38  1  0
 38 39  2  0
 38 40  2  0
 26 41  1  0
 41 42  1  0
 42 43  2  0
 43 44  1  0
 44 45  2  0
 17  4  1  0
 45 23  1  0
 14  5  1  0
 38 27  1  0
 45 41  1  0
 13  9  1  0
 37 32  1  0
  3 46  1  0
 10 47  1  0
 11 48  1  0
 12 49  1  0
 14 50  1  0
 15 51  1  0
 15 52  1  0
 16 53  1  0
 16 54  1  0
 17 55  1  0
 17 56  1  0
 19 57  1  0
 21 58  1  0
 21 59  1  0
 22 60  1  0
 24 61  1  0
 25 62  1  0
 28 63  1  0
 28 64  1  0
 29 65  1  0
 29 66  1  0
 30 67  1  0
 30 68  1  0
 31 69  1  0
 33 70  1  0
 34 71  1  0
 35 72  1  0
 36 73  1  0
 37 74  1  0
 42 75  1  0
M  END
>  <Energy>  (745) 
146.20332231203193

>  <compound_id>  (745) 
4338

>  <target_id>  (745) 
1

>  <reference_id>  (745) 
152

>  <inspiration_ids>  (745) 
[152, 130]

>  <energy_score>  (745) 
-89.89684007362666

>  <distance_score>  (745) 
1.8548260980919409

>  <path>  (745) 
/opt/xchem-fragalysis-2/maxwin/BulkDock/SCRATCH/505735/C4338-P152/C4338-P152.minimised.mol

>  <scratch_subdir>  (745) 
/opt/xchem-fragalysis-2/maxwin/BulkDock/SCRATCH/505735/C4338-P152

>  <fragmenstein_runtime>  (745) 
36.79530930519104

>  <fragmenstein_outcome>  (745) 
too moved

>  <fragmenstein_mode>  (745) 
expansion

>  <fragmenstein_error>  (745) 


$$$$
C4338-P130
     RDKit          3D

 75 81  0  0  0  0  0  0  0  0999 V2000
   -1.6650   -0.8151   28.8073 O   0  0  0  0  0  0  0  0  0  0  0  0
   -0.5043   -0.7365   29.0995 C   0  0  0  0  0  0  0  0  0  0  0  0
    0.4012    0.3978   29.0821 N   0  0  0  0  0  0  0  0  0  0  0  0
    0.1625    1.8103   28.7988 C   0  0  0  0  0  0  0  0  0  0  0  0
    0.5155    2.6193   30.1028 C   0  0  0  0  0  0  0  0  0  0  0  0
    1.0695    2.0601   31.1608 N   0  0  0  0  0  0  0  0  0  0  0  0
    1.3181    3.0486   32.0794 N   0  0  0  0  0  0  0  0  0  0  0  0
    0.9199    4.1977   31.5703 C   0  0  0  0  0  0  0  0  0  0  0  0
    1.0274    5.4827   32.1979 C   0  0  0  0  0  0  0  0  0  0  0  0
    0.6334    6.7139   31.7050 C   0  0  0  0  0  0  0  0  0  0  0  0
    0.9051    7.7842   32.6087 C   0  0  0  0  0  0  0  0  0  0  0  0
    1.5015    7.3402   33.7657 C   0  0  0  0  0  0  0  0  0  0  0  0
    1.7250    5.6465   33.7599 S   0  0  0  0  0  0  0  0  0  0  0  0
    0.3786    3.9623   30.3312 N   0  0  0  0  0  0  0  0  0  0  0  0
    0.9530    2.3133   27.5670 C   0  0  0  0  0  0  0  0  0  0  0  0
   -0.3053    3.0709   27.1116 C   0  0  0  0  0  0  0  0  0  0  0  0
   -1.1334    2.1671   28.0390 C   0  0  0  0  0  0  0  0  0  0  0  0
    0.2329   -1.9862   29.7096 C   0  0  0  0  0  0  0  0  0  0  0  0
    0.1271   -1.6920   31.5507 S   0  0  0  0  0  0  0  0  0  0  0  0
    1.9629   -1.9606   29.1826 Cl  0  0  0  0  0  0  0  0  0  0  0  0
   -0.4510   -3.3156   29.2997 C   0  0  0  0  0  0  0  0  0  0  0  0
    0.3093   -4.6015   29.5133 N   0  0  0  0  0  0  0  0  0  0  0  0
    0.5408   -5.1200   30.7892 C   0  0  0  0  0  0  0  0  0  0  0  0
    1.5115   -4.6214   31.5865 C   0  0  0  0  0  0  0  0  0  0  0  0
    1.5700   -4.8943   33.0073 C   0  0  0  0  0  0  0  0  0  0  0  0
    0.6978   -5.7680   33.5325 C   0  0  0  0  0  0  0  0  0  0  0  0
    0.7066   -5.7456   34.9512 N   0  0  0  0  0  0  0  0  0  0  0  0
   -0.3135   -4.9344   35.6611 C   0  0  0  0  0  0  0  0  0  0  0  0
    0.2933   -4.4027   36.9610 C   0  0  0  0  0  0  0  0  0  0  0  0
    0.8068   -5.5121   37.8891 C   0  0  0  0  0  0  0  0  0  0  0  0
    1.8727   -6.3932   37.2112 C   0  0  0  0  0  0  0  0  0  0  0  0
    2.4975   -7.4434   38.1009 C   0  0  0  0  0  0  0  0  0  0  0  0
    3.8858   -7.6590   38.0407 C   0  0  0  0  0  0  0  0  0  0  0  0
    4.5037   -8.5957   38.8716 C   0  0  0  0  0  0  0  0  0  0  0  0
    3.7447   -9.3318   39.7753 C   0  0  0  0  0  0  0  0  0  0  0  0
    2.3688   -9.1359   39.8410 C   0  0  0  0  0  0  0  0  0  0  0  0
    1.7469   -8.2046   39.0060 C   0  0  0  0  0  0  0  0  0  0  0  0
    1.1676   -7.1778   35.7422 S   0  0  0  0  0  0  0  0  0  0  0  0
   -0.0626   -7.8657   36.0719 O   0  0  0  0  0  0  0  0  0  0  0  0
    2.1925   -7.8120   34.9320 O   0  0  0  0  0  0  0  0  0  0  0  0
   -0.1552   -6.4725   32.6855 N   0  0  0  0  0  0  0  0  0  0  0  0
   -1.0520   -7.4821   32.8945 C   0  0  0  0  0  0  0  0  0  0  0  0
   -1.5715   -7.8784   31.7510 N   0  0  0  0  0  0  0  0  0  0  0  0
   -1.0578   -7.0788   30.7572 N   0  0  0  0  0  0  0  0  0  0  0  0
   -0.2311   -6.2171   31.3193 C   0  0  0  0  0  0  0  0  0  0  0  0
    1.3395    0.0778   29.3165 H   0  0  0  0  0  0  0  0  0  0  0  0
    0.1561    6.8569   30.7428 H   0  0  0  0  0  0  0  0  0  0  0  0
    0.6712    8.8242   32.4170 H   0  0  0  0  0  0  0  0  0  0  0  0
    1.8166    7.9267   34.6177 H   0  0  0  0  0  0  0  0  0  0  0  0
   -0.0886    4.6432   29.7475 H   0  0  0  0  0  0  0  0  0  0  0  0
    1.8244    2.9466   27.7622 H   0  0  0  0  0  0  0  0  0  0  0  0
    1.2658    1.5179   26.8870 H   0  0  0  0  0  0  0  0  0  0  0  0
   -0.5401    2.9951   26.0465 H   0  0  0  0  0  0  0  0  0  0  0  0
   -0.3149    4.1279   27.3992 H   0  0  0  0  0  0  0  0  0  0  0  0
   -1.9134    2.6869   28.5971 H   0  0  0  0  0  0  0  0  0  0  0  0
   -1.6015    1.3417   27.4910 H   0  0  0  0  0  0  0  0  0  0  0  0
    0.5628   -0.4186   31.5217 H   0  0  0  0  0  0  0  0  0  0  0  0
   -0.6527   -3.2715   28.2249 H   0  0  0  0  0  0  0  0  0  0  0  0
   -1.4342   -3.4031   29.7783 H   0  0  0  0  0  0  0  0  0  0  0  0
   -0.1840   -5.3180   28.9640 H   0  0  0  0  0  0  0  0  0  0  0  0
    2.1950   -3.8601   31.2272 H   0  0  0  0  0  0  0  0  0  0  0  0
    2.2408   -4.2905   33.6106 H   0  0  0  0  0  0  0  0  0  0  0  0
   -0.6166   -4.0832   35.0399 H   0  0  0  0  0  0  0  0  0  0  0  0
   -1.2130   -5.5291   35.8538 H   0  0  0  0  0  0  0  0  0  0  0  0
   -0.4609   -3.8108   37.4924 H   0  0  0  0  0  0  0  0  0  0  0  0
    1.1227   -3.7241   36.7245 H   0  0  0  0  0  0  0  0  0  0  0  0
   -0.0515   -6.1122   38.2150 H   0  0  0  0  0  0  0  0  0  0  0  0
    1.2296   -5.0511   38.7903 H   0  0  0  0  0  0  0  0  0  0  0  0
    2.6722   -5.7400   36.8354 H   0  0  0  0  0  0  0  0  0  0  0  0
    4.5057   -7.0969   37.3445 H   0  0  0  0  0  0  0  0  0  0  0  0
    5.5777   -8.7522   38.8116 H   0  0  0  0  0  0  0  0  0  0  0  0
    4.2187  -10.0682   40.4182 H   0  0  0  0  0  0  0  0  0  0  0  0
    1.7642   -9.7365   40.5185 H   0  0  0  0  0  0  0  0  0  0  0  0
    0.6645   -8.1148   39.0660 H   0  0  0  0  0  0  0  0  0  0  0  0
   -1.2685   -7.9022   33.8653 H   0  0  0  0  0  0  0  0  0  0  0  0
  1  2  2  0
  2  3  1  0
  3  4  1  0
  4  5  1  0
  5  6  2  0
  6  7  1  0
  7  8  2  0
  8  9  1  0
  9 10  2  0
 10 11  1  0
 11 12  2  0
 12 13  1  0
  8 14  1  0
  4 15  1  0
 15 16  1  0
 16 17  1  0
  2 18  1  0
 18 19  1  0
 18 20  1  0
 18 21  1  0
 21 22  1  0
 22 23  1  0
 23 24  2  0
 24 25  1  0
 25 26  2  0
 26 27  1  0
 27 28  1  0
 28 29  1  0
 29 30  1  0
 30 31  1  0
 31 32  1  0
 32 33  2  0
 33 34  1  0
 34 35  2  0
 35 36  1  0
 36 37  2  0
 31 38  1  0
 38 39  2  0
 38 40  2  0
 26 41  1  0
 41 42  1  0
 42 43  2  0
 43 44  1  0
 44 45  2  0
 17  4  1  0
 45 23  1  0
 14  5  1  0
 38 27  1  0
 45 41  1  0
 13  9  1  0
 37 32  1  0
  3 46  1  0
 10 47  1  0
 11 48  1  0
 12 49  1  0
 14 50  1  0
 15 51  1  0
 15 52  1  0
 16 53  1  0
 16 54  1  0
 17 55  1  0
 17 56  1  0
 19 57  1  0
 21 58  1  0
 21 59  1  0
 22 60  1  0
 24 61  1  0
 25 62  1  0
 28 63  1  0
 28 64  1  0
 29 65  1  0
 29 66  1  0
 30 67  1  0
 30 68  1  0
 31 69  1  0
 33 70  1  0
 34 71  1  0
 35 72  1  0
 36 73  1  0
 37 74  1  0
 42 75  1  0
M  END
>  <Energy>  (746) 
155.43596457086721

>  <compound_id>  (746) 
4338

>  <target_id>  (746) 
1

>  <reference_id>  (746) 
130

>  <inspiration_ids>  (746) 
[152, 130]

>  <energy_score>  (746) 
-80.66419781479547

>  <distance_score>  (746) 
1.7638183113021548

>  <path>  (746) 
/opt/xchem-fragalysis-2/maxwin/BulkDock/SCRATCH/505735/C4338-P130/C4338-P130.minimised.mol

>  <scratch_subdir>  (746) 
/opt/xchem-fragalysis-2/maxwin/BulkDock/SCRATCH/505735/C4338-P130

>  <fragmenstein_runtime>  (746) 
34.336992263793945

>  <fragmenstein_outcome>  (746) 
too moved

>  <fragmenstein_mode>  (746) 
expansion

>  <fragmenstein_error>  (746) 


$$$$
C2647-P152
     RDKit          3D

 63 68  0  0  0  0  0  0  0  0999 V2000
    0.0310   -0.1968   33.9519 O   0  0  0  0  0  0  0  0  0  0  0  0
    1.0274   -0.3097   33.3859 C   0  0  0  0  0  0  0  0  0  0  0  0
    2.4287    0.0088   33.9494 C   0  0  0  0  0  0  0  0  0  0  0  0
    2.3394    1.3242   35.1962 S   0  0  0  0  0  0  0  0  0  0  0  0
    3.0564   -1.4925   34.6821 Cl  0  0  0  0  0  0  0  0  0  0  0  0
    1.3971   -0.8369   31.8663 N   0  0  0  0  0  0  0  0  0  0  0  0
    0.4488   -1.1102   30.9739 C   0  0  0  0  0  0  0  0  0  0  0  0
    0.6180    0.5559   30.3197 C   0  0  0  0  0  0  0  0  0  0  0  0
    0.7916    1.8839   30.7465 C   0  0  0  0  0  0  0  0  0  0  0  0
    0.7633    2.7236   29.6384 C   0  0  0  0  0  0  0  0  0  0  0  0
    0.5479    1.8612   28.1420 S   0  0  0  0  0  0  0  0  0  0  0  0
    0.4823    0.4360   28.9800 C   0  0  0  0  0  0  0  0  0  0  0  0
    0.3047   -0.9757   28.6782 C   0  0  0  0  0  0  0  0  0  0  0  0
    0.4340   -1.6539   30.3828 C   0  0  0  0  0  0  0  0  0  0  0  0
   -0.4899   -2.9851   30.5530 N   0  0  0  0  0  0  0  0  0  0  0  0
   -0.1277   -4.1762   31.1824 C   0  0  0  0  0  0  0  0  0  0  0  0
    0.1475   -4.2246   32.6235 C   0  0  0  0  0  0  0  0  0  0  0  0
   -0.0285   -5.3772   33.3166 C   0  0  0  0  0  0  0  0  0  0  0  0
    0.3145   -5.2800   34.7187 N   0  0  0  0  0  0  0  0  0  0  0  0
   -0.4642   -4.3529   35.5911 C   0  0  0  0  0  0  0  0  0  0  0  0
    0.4210   -3.8286   36.7198 C   0  0  0  0  0  0  0  0  0  0  0  0
    0.9439   -4.9418   37.6286 C   0  0  0  0  0  0  0  0  0  0  0  0
    1.8042   -5.9505   36.8571 C   0  0  0  0  0  0  0  0  0  0  0  0
    2.3837   -7.0505   37.7257 C   0  0  0  0  0  0  0  0  0  0  0  0
    3.7606   -7.3257   37.6675 C   0  0  0  0  0  0  0  0  0  0  0  0
    4.3282   -8.3151   38.4739 C   0  0  0  0  0  0  0  0  0  0  0  0
    3.5299   -9.0443   39.3499 C   0  0  0  0  0  0  0  0  0  0  0  0
    2.1639   -8.7877   39.4165 C   0  0  0  0  0  0  0  0  0  0  0  0
    1.5931   -7.8019   38.6094 C   0  0  0  0  0  0  0  0  0  0  0  0
    0.8478   -6.6995   35.5172 S   0  0  0  0  0  0  0  0  0  0  0  0
   -0.3335   -7.3416   36.0548 O   0  0  0  0  0  0  0  0  0  0  0  0
    1.7325   -7.4097   34.6096 O   0  0  0  0  0  0  0  0  0  0  0  0
   -0.4512   -6.5141   32.6052 N   0  0  0  0  0  0  0  0  0  0  0  0
   -0.9974   -7.7190   32.9581 C   0  0  0  0  0  0  0  0  0  0  0  0
   -1.2583   -8.4416   31.8883 N   0  0  0  0  0  0  0  0  0  0  0  0
   -0.9094   -7.7101   30.7882 N   0  0  0  0  0  0  0  0  0  0  0  0
   -0.4820   -6.5449   31.2172 C   0  0  0  0  0  0  0  0  0  0  0  0
   -0.2558   -5.3390   30.5139 C   0  0  0  0  0  0  0  0  0  0  0  0
    3.1152    0.3210   33.1578 H   0  0  0  0  0  0  0  0  0  0  0  0
    1.3114    0.7875   35.8712 H   0  0  0  0  0  0  0  0  0  0  0  0
   -0.2363   -1.3970   31.9955 H   0  0  0  0  0  0  0  0  0  0  0  0
   -0.6602   -0.4559   31.1446 H   0  0  0  0  0  0  0  0  0  0  0  0
    0.9011    2.2389   31.7626 H   0  0  0  0  0  0  0  0  0  0  0  0
    0.8400    3.8035   29.6211 H   0  0  0  0  0  0  0  0  0  0  0  0
   -0.6791   -1.2476   28.2865 H   0  0  0  0  0  0  0  0  0  0  0  0
    1.1200   -1.4061   28.0914 H   0  0  0  0  0  0  0  0  0  0  0  0
    1.3923   -2.3252   30.0289 H   0  0  0  0  0  0  0  0  0  0  0  0
   -0.9149   -3.1679   29.6339 H   0  0  0  0  0  0  0  0  0  0  0  0
    0.4972   -3.3197   33.1048 H   0  0  0  0  0  0  0  0  0  0  0  0
   -1.3362   -4.8734   36.0003 H   0  0  0  0  0  0  0  0  0  0  0  0
   -0.8355   -3.4949   35.0215 H   0  0  0  0  0  0  0  0  0  0  0  0
    1.2685   -3.2767   36.3000 H   0  0  0  0  0  0  0  0  0  0  0  0
   -0.1556   -3.1183   37.3237 H   0  0  0  0  0  0  0  0  0  0  0  0
    0.0869   -5.4327   38.1057 H   0  0  0  0  0  0  0  0  0  0  0  0
    1.5377   -4.4937   38.4349 H   0  0  0  0  0  0  0  0  0  0  0  0
    2.6238   -5.4140   36.3608 H   0  0  0  0  0  0  0  0  0  0  0  0
    4.4111   -6.7691   36.9955 H   0  0  0  0  0  0  0  0  0  0  0  0
    5.3949   -8.5169   38.4193 H   0  0  0  0  0  0  0  0  0  0  0  0
    3.9648   -9.8195   39.9753 H   0  0  0  0  0  0  0  0  0  0  0  0
    1.5326   -9.3768   40.0806 H   0  0  0  0  0  0  0  0  0  0  0  0
    0.5175   -7.6496   38.6785 H   0  0  0  0  0  0  0  0  0  0  0  0
   -1.2194   -8.0230   33.9689 H   0  0  0  0  0  0  0  0  0  0  0  0
   -0.4514   -5.3474   29.4504 H   0  0  0  0  0  0  0  0  0  0  0  0
  1  2  2  0
  2  3  1  0
  3  4  1  0
  3  5  1  0
  2  6  1  0
  6  7  1  0
  7  8  1  0
  8  9  1  0
  9 10  2  0
 10 11  1  0
 11 12  1  0
 12 13  1  0
 13 14  1  0
 14 15  1  0
 15 16  1  0
 16 17  1  0
 17 18  2  0
 18 19  1  0
 19 20  1  0
 20 21  1  0
 21 22  1  0
 22 23  1  0
 23 24  1  0
 24 25  2  0
 25 26  1  0
 26 27  2  0
 27 28  1  0
 28 29  2  0
 23 30  1  0
 30 31  2  0
 30 32  2  0
 18 33  1  0
 33 34  1  0
 34 35  2  0
 35 36  1  0
 36 37  2  0
 37 38  1  0
 14  6  1  0
 38 16  2  0
 12  8  2  0
 30 19  1  0
 37 33  1  0
 29 24  1  0
  3 39  1  0
  4 40  1  0
  7 41  1  0
  7 42  1  0
  9 43  1  0
 10 44  1  0
 13 45  1  0
 13 46  1  0
 14 47  1  0
 15 48  1  0
 17 49  1  0
 20 50  1  0
 20 51  1  0
 21 52  1  0
 21 53  1  0
 22 54  1  0
 22 55  1  0
 23 56  1  0
 25 57  1  0
 26 58  1  0
 27 59  1  0
 28 60  1  0
 29 61  1  0
 34 62  1  0
 38 63  1  0
M  END
>  <Energy>  (747) 
853.28533013843867

>  <compound_id>  (747) 
2647

>  <target_id>  (747) 
1

>  <reference_id>  (747) 
152

>  <inspiration_ids>  (747) 
[152, 131]

>  <energy_score>  (747) 
701.9847652437986

>  <distance_score>  (747) 
2.145837002960308

>  <path>  (747) 
/opt/xchem-fragalysis-2/maxwin/BulkDock/SCRATCH/505735/C2647-P152/C2647-P152.minimised.mol

>  <scratch_subdir>  (747) 
/opt/xchem-fragalysis-2/maxwin/BulkDock/SCRATCH/505735/C2647-P152

>  <fragmenstein_runtime>  (747) 
14.121363401412964

>  <fragmenstein_outcome>  (747) 
too moved

>  <fragmenstein_mode>  (747) 
expansion

>  <fragmenstein_error>  (747) 


$$$$
C2647-P131
     RDKit          3D

 63 68  0  0  0  0  0  0  0  0999 V2000
    0.0531   -1.5396   33.5774 O   0  0  0  0  0  0  0  0  0  0  0  0
    1.0122   -1.1939   33.0498 C   0  0  0  0  0  0  0  0  0  0  0  0
    2.1952   -0.4921   33.7517 C   0  0  0  0  0  0  0  0  0  0  0  0
    1.5860    0.9535   34.6680 S   0  0  0  0  0  0  0  0  0  0  0  0
    2.9322   -1.6637   34.8786 Cl  0  0  0  0  0  0  0  0  0  0  0  0
    1.5089   -1.2684   31.5134 N   0  0  0  0  0  0  0  0  0  0  0  0
    0.3374   -1.8740   30.1142 C   0  0  0  0  0  0  0  0  0  0  0  0
   -0.3463   -0.4651   29.4147 C   0  0  0  0  0  0  0  0  0  0  0  0
   -1.5252    0.2724   29.3815 C   0  0  0  0  0  0  0  0  0  0  0  0
   -1.3457    1.3642   28.5375 C   0  0  0  0  0  0  0  0  0  0  0  0
    0.2695    1.4573   27.8890 S   0  0  0  0  0  0  0  0  0  0  0  0
    0.6525    0.0575   28.6773 C   0  0  0  0  0  0  0  0  0  0  0  0
    1.8212   -0.7992   28.9063 C   0  0  0  0  0  0  0  0  0  0  0  0
    1.0759   -1.8236   30.3803 C   0  0  0  0  0  0  0  0  0  0  0  0
    1.7042   -3.4962   30.4862 N   0  0  0  0  0  0  0  0  0  0  0  0
    1.0155   -4.5108   31.1549 C   0  0  0  0  0  0  0  0  0  0  0  0
    1.1201   -4.5836   32.6095 C   0  0  0  0  0  0  0  0  0  0  0  0
    0.5344   -5.5880   33.2957 C   0  0  0  0  0  0  0  0  0  0  0  0
    0.7743   -5.5137   34.7079 N   0  0  0  0  0  0  0  0  0  0  0  0
   -0.0524   -4.5628   35.5037 C   0  0  0  0  0  0  0  0  0  0  0  0
    0.1815   -4.6771   37.0123 C   0  0  0  0  0  0  0  0  0  0  0  0
    1.6478   -4.9059   37.3710 C   0  0  0  0  0  0  0  0  0  0  0  0
    2.2550   -6.2063   36.8102 C   0  0  0  0  0  0  0  0  0  0  0  0
    2.5682   -7.2586   37.8551 C   0  0  0  0  0  0  0  0  0  0  0  0
    3.8734   -7.7713   37.9521 C   0  0  0  0  0  0  0  0  0  0  0  0
    4.2008   -8.7171   38.9258 C   0  0  0  0  0  0  0  0  0  0  0  0
    3.2297   -9.1656   39.8161 C   0  0  0  0  0  0  0  0  0  0  0  0
    1.9307   -8.6726   39.7287 C   0  0  0  0  0  0  0  0  0  0  0  0
    1.6007   -7.7268   38.7561 C   0  0  0  0  0  0  0  0  0  0  0  0
    1.2572   -6.9416   35.4933 S   0  0  0  0  0  0  0  0  0  0  0  0
    2.1183   -7.6813   34.5875 O   0  0  0  0  0  0  0  0  0  0  0  0
    0.0478   -7.5303   36.0197 O   0  0  0  0  0  0  0  0  0  0  0  0
   -0.1855   -6.5613   32.5893 N   0  0  0  0  0  0  0  0  0  0  0  0
   -0.9530   -7.6353   32.9510 C   0  0  0  0  0  0  0  0  0  0  0  0
   -1.4382   -8.2372   31.8827 N   0  0  0  0  0  0  0  0  0  0  0  0
   -1.0036   -7.5552   30.7780 N   0  0  0  0  0  0  0  0  0  0  0  0
   -0.2739   -6.5467   31.2021 C   0  0  0  0  0  0  0  0  0  0  0  0
    0.3717   -5.4978   30.5003 C   0  0  0  0  0  0  0  0  0  0  0  0
    2.9665   -0.1723   33.0467 H   0  0  0  0  0  0  0  0  0  0  0  0
    0.6689    0.2736   35.3727 H   0  0  0  0  0  0  0  0  0  0  0  0
   -0.6730   -2.1679   30.7323 H   0  0  0  0  0  0  0  0  0  0  0  0
    0.2329   -2.7234   29.1611 H   0  0  0  0  0  0  0  0  0  0  0  0
   -2.4404    0.0504   29.9092 H   0  0  0  0  0  0  0  0  0  0  0  0
   -2.0635    2.1324   28.2758 H   0  0  0  0  0  0  0  0  0  0  0  0
    2.0368   -1.5004   28.0928 H   0  0  0  0  0  0  0  0  0  0  0  0
    2.6977   -0.2456   29.2642 H   0  0  0  0  0  0  0  0  0  0  0  0
    2.2602   -1.8738   30.3081 H   0  0  0  0  0  0  0  0  0  0  0  0
    1.9338   -3.7760   29.5270 H   0  0  0  0  0  0  0  0  0  0  0  0
    1.7342   -3.8422   33.1050 H   0  0  0  0  0  0  0  0  0  0  0  0
   -1.1123   -4.7150   35.2872 H   0  0  0  0  0  0  0  0  0  0  0  0
    0.2110   -3.5456   35.1987 H   0  0  0  0  0  0  0  0  0  0  0  0
   -0.1712   -3.7554   37.4910 H   0  0  0  0  0  0  0  0  0  0  0  0
   -0.4348   -5.4798   37.4327 H   0  0  0  0  0  0  0  0  0  0  0  0
    1.7733   -4.8493   38.4592 H   0  0  0  0  0  0  0  0  0  0  0  0
    2.2242   -4.0608   36.9713 H   0  0  0  0  0  0  0  0  0  0  0  0
    3.1944   -5.9278   36.3122 H   0  0  0  0  0  0  0  0  0  0  0  0
    4.6538   -7.4366   37.2714 H   0  0  0  0  0  0  0  0  0  0  0  0
    5.2147   -9.1038   38.9888 H   0  0  0  0  0  0  0  0  0  0  0  0
    3.4805   -9.9047   40.5716 H   0  0  0  0  0  0  0  0  0  0  0  0
    1.1614   -9.0389   40.4040 H   0  0  0  0  0  0  0  0  0  0  0  0
    0.5703   -7.3806   38.7038 H   0  0  0  0  0  0  0  0  0  0  0  0
   -1.1386   -7.9384   33.9708 H   0  0  0  0  0  0  0  0  0  0  0  0
    0.3064   -5.4973   29.4235 H   0  0  0  0  0  0  0  0  0  0  0  0
  1  2  2  0
  2  3  1  0
  3  4  1  0
  3  5  1  0
  2  6  1  0
  6  7  1  0
  7  8  1  0
  8  9  1  0
  9 10  2  0
 10 11  1  0
 11 12  1  0
 12 13  1  0
 13 14  1  0
 14 15  1  0
 15 16  1  0
 16 17  1  0
 17 18  2  0
 18 19  1  0
 19 20  1  0
 20 21  1  0
 21 22  1  0
 22 23  1  0
 23 24  1  0
 24 25  2  0
 25 26  1  0
 26 27  2  0
 27 28  1  0
 28 29  2  0
 23 30  1  0
 30 31  2  0
 30 32  2  0
 18 33  1  0
 33 34  1  0
 34 35  2  0
 35 36  1  0
 36 37  2  0
 37 38  1  0
 14  6  1  0
 38 16  2  0
 12  8  2  0
 30 19  1  0
 37 33  1  0
 29 24  1  0
  3 39  1  0
  4 40  1  0
  7 41  1  0
  7 42  1  0
  9 43  1  0
 10 44  1  0
 13 45  1  0
 13 46  1  0
 14 47  1  0
 15 48  1  0
 17 49  1  0
 20 50  1  0
 20 51  1  0
 21 52  1  0
 21 53  1  0
 22 54  1  0
 22 55  1  0
 23 56  1  0
 25 57  1  0
 26 58  1  0
 27 59  1  0
 28 60  1  0
 29 61  1  0
 34 62  1  0
 38 63  1  0
M  END
>  <Energy>  (748) 
850.41035351131222

>  <compound_id>  (748) 
2647

>  <target_id>  (748) 
1

>  <reference_id>  (748) 
131

>  <inspiration_ids>  (748) 
[152, 131]

>  <energy_score>  (748) 
699.1097886166821

>  <distance_score>  (748) 
2.052130669911927

>  <path>  (748) 
/opt/xchem-fragalysis-2/maxwin/BulkDock/SCRATCH/505735/C2647-P131/C2647-P131.minimised.mol

>  <scratch_subdir>  (748) 
/opt/xchem-fragalysis-2/maxwin/BulkDock/SCRATCH/505735/C2647-P131

>  <fragmenstein_runtime>  (748) 
14.875988245010376

>  <fragmenstein_outcome>  (748) 
too moved

>  <fragmenstein_mode>  (748) 
expansion

>  <fragmenstein_error>  (748) 


$$$$
C4340-P152
     RDKit          3D

 61 65  0  0  0  0  0  0  0  0999 V2000
    3.6022    0.0785   29.2057 O   0  0  0  0  0  0  0  0  0  0  0  0
    2.7479   -1.0847   29.1739 S   0  0  0  0  0  0  0  0  0  0  0  0
    2.7093   -1.9990   28.0565 O   0  0  0  0  0  0  0  0  0  0  0  0
    3.1676   -2.0205   30.5227 N   0  0  0  0  0  0  0  0  0  0  0  0
    2.7452   -3.4327   30.6165 C   0  0  0  0  0  0  0  0  0  0  0  0
    1.2176   -3.5973   30.6879 C   0  0  0  0  0  0  0  0  0  0  0  0
    0.7376   -4.8309   31.3921 C   0  0  0  0  0  0  0  0  0  0  0  0
    0.8613   -4.8624   32.8462 C   0  0  0  0  0  0  0  0  0  0  0  0
    0.2420   -5.8305   33.5475 C   0  0  0  0  0  0  0  0  0  0  0  0
    0.4658   -5.7023   34.9523 N   0  0  0  0  0  0  0  0  0  0  0  0
   -0.3878   -4.7700   35.7285 C   0  0  0  0  0  0  0  0  0  0  0  0
    0.4193   -4.2052   36.8964 C   0  0  0  0  0  0  0  0  0  0  0  0
    0.9121   -5.2928   37.8555 C   0  0  0  0  0  0  0  0  0  0  0  0
    1.8283   -6.3111   37.1580 C   0  0  0  0  0  0  0  0  0  0  0  0
    2.3774   -7.3786   38.0803 C   0  0  0  0  0  0  0  0  0  0  0  0
    3.7534   -7.6631   38.0697 C   0  0  0  0  0  0  0  0  0  0  0  0
    4.2915   -8.6263   38.9261 C   0  0  0  0  0  0  0  0  0  0  0  0
    3.4642   -9.3186   39.8049 C   0  0  0  0  0  0  0  0  0  0  0  0
    2.0991   -9.0516   39.8243 C   0  0  0  0  0  0  0  0  0  0  0  0
    1.5573   -8.0935   38.9662 C   0  0  0  0  0  0  0  0  0  0  0  0
    0.9550   -7.1044   35.7872 S   0  0  0  0  0  0  0  0  0  0  0  0
   -0.2513   -7.7409   36.2664 O   0  0  0  0  0  0  0  0  0  0  0  0
    1.8860   -7.8073   34.9211 O   0  0  0  0  0  0  0  0  0  0  0  0
   -0.4963   -6.7999   32.8591 N   0  0  0  0  0  0  0  0  0  0  0  0
   -1.3121   -7.8218   33.2493 C   0  0  0  0  0  0  0  0  0  0  0  0
   -1.7915   -8.4511   32.1973 N   0  0  0  0  0  0  0  0  0  0  0  0
   -1.3190   -7.8319   31.0738 N   0  0  0  0  0  0  0  0  0  0  0  0
   -0.5669   -6.8327   31.4696 C   0  0  0  0  0  0  0  0  0  0  0  0
    0.0729   -5.8025   30.7404 C   0  0  0  0  0  0  0  0  0  0  0  0
    1.1008   -0.5699   29.6002 C   0  0  0  0  0  0  0  0  0  0  0  0
    0.9080    0.0026   30.8626 C   0  0  0  0  0  0  0  0  0  0  0  0
   -0.3589   -0.0181   31.4244 C   0  0  0  0  0  0  0  0  0  0  0  0
   -1.4036   -0.5949   30.7167 C   0  0  0  0  0  0  0  0  0  0  0  0
   -2.5734   -0.7451   31.3957 O   0  0  0  0  0  0  0  0  0  0  0  0
   -1.2406   -1.0458   29.4071 C   0  0  0  0  0  0  0  0  0  0  0  0
    0.0240   -1.0150   28.8311 C   0  0  0  0  0  0  0  0  0  0  0  0
    4.0990   -1.7746   30.8596 H   0  0  0  0  0  0  0  0  0  0  0  0
    3.2116   -3.8315   31.5254 H   0  0  0  0  0  0  0  0  0  0  0  0
    3.1665   -4.0085   29.7851 H   0  0  0  0  0  0  0  0  0  0  0  0
    0.7833   -2.7521   31.2288 H   0  0  0  0  0  0  0  0  0  0  0  0
    0.8142   -3.5642   29.6694 H   0  0  0  0  0  0  0  0  0  0  0  0
    1.4422   -4.0840   33.3335 H   0  0  0  0  0  0  0  0  0  0  0  0
   -0.7094   -3.9349   35.0960 H   0  0  0  0  0  0  0  0  0  0  0  0
   -1.2890   -5.2828   36.0800 H   0  0  0  0  0  0  0  0  0  0  0  0
   -0.2052   -3.4958   37.4517 H   0  0  0  0  0  0  0  0  0  0  0  0
    1.2800   -3.6428   36.5135 H   0  0  0  0  0  0  0  0  0  0  0  0
    0.0368   -5.7851   38.2967 H   0  0  0  0  0  0  0  0  0  0  0  0
    1.4548   -4.8178   38.6822 H   0  0  0  0  0  0  0  0  0  0  0  0
    2.6654   -5.7726   36.6940 H   0  0  0  0  0  0  0  0  0  0  0  0
    4.4260   -7.1372   37.3951 H   0  0  0  0  0  0  0  0  0  0  0  0
    5.3574   -8.8386   38.9071 H   0  0  0  0  0  0  0  0  0  0  0  0
    3.8754  -10.0762   40.4670 H   0  0  0  0  0  0  0  0  0  0  0  0
    1.4449   -9.6172   40.4862 H   0  0  0  0  0  0  0  0  0  0  0  0
    0.4802   -7.9408   38.9943 H   0  0  0  0  0  0  0  0  0  0  0  0
   -1.5381   -8.0689   34.2748 H   0  0  0  0  0  0  0  0  0  0  0  0
   -0.0805   -5.7636   29.6700 H   0  0  0  0  0  0  0  0  0  0  0  0
    1.7545    0.3610   31.4436 H   0  0  0  0  0  0  0  0  0  0  0  0
   -0.5169    0.3523   32.4329 H   0  0  0  0  0  0  0  0  0  0  0  0
   -3.0156   -1.5098   30.9970 H   0  0  0  0  0  0  0  0  0  0  0  0
   -2.0566   -1.4670   28.8303 H   0  0  0  0  0  0  0  0  0  0  0  0
    0.1725   -1.4468   27.8450 H   0  0  0  0  0  0  0  0  0  0  0  0
  1  2  2  0
  2  3  2  0
  2  4  1  0
  4  5  1  0
  5  6  1  0
  6  7  1  0
  7  8  1  0
  8  9  2  0
  9 10  1  0
 10 11  1  0
 11 12  1  0
 12 13  1  0
 13 14  1  0
 14 15  1  0
 15 16  2  0
 16 17  1  0
 17 18  2  0
 18 19  1  0
 19 20  2  0
 14 21  1  0
 21 22  2  0
 21 23  2  0
  9 24  1  0
 24 25  1  0
 25 26  2  0
 26 27  1  0
 27 28  2  0
 28 29  1  0
  2 30  1  0
 30 31  2  0
 31 32  1  0
 32 33  2  0
 33 34  1  0
 33 35  1  0
 35 36  2  0
 29  7  2  0
 36 30  1  0
 21 10  1  0
 28 24  1  0
 20 15  1  0
  4 37  1  0
  5 38  1  0
  5 39  1  0
  6 40  1  0
  6 41  1  0
  8 42  1  0
 11 43  1  0
 11 44  1  0
 12 45  1  0
 12 46  1  0
 13 47  1  0
 13 48  1  0
 14 49  1  0
 16 50  1  0
 17 51  1  0
 18 52  1  0
 19 53  1  0
 20 54  1  0
 25 55  1  0
 29 56  1  0
 31 57  1  0
 32 58  1  0
 34 59  1  0
 35 60  1  0
 36 61  1  0
M  END
>  <Energy>  (749) 
28.436430437874506

>  <compound_id>  (749) 
4340

>  <target_id>  (749) 
1

>  <reference_id>  (749) 
152

>  <inspiration_ids>  (749) 
[152, 134]

>  <energy_score>  (749) 
-63.14798806783034

>  <distance_score>  (749) 
1.0166436650904995

>  <path>  (749) 
/opt/xchem-fragalysis-2/maxwin/BulkDock/SCRATCH/505735/C4340-P152/C4340-P152.minimised.mol

>  <scratch_subdir>  (749) 
/opt/xchem-fragalysis-2/maxwin/BulkDock/SCRATCH/505735/C4340-P152

>  <fragmenstein_runtime>  (749) 
26.446659564971924

>  <fragmenstein_outcome>  (749) 
too moved

>  <fragmenstein_mode>  (749) 
expansion

>  <fragmenstein_error>  (749) 


$$$$
C4340-P134
     RDKit          3D

 61 65  0  0  0  0  0  0  0  0999 V2000
    3.5518    0.1284   28.9517 O   0  0  0  0  0  0  0  0  0  0  0  0
    2.6943   -1.0327   28.9746 S   0  0  0  0  0  0  0  0  0  0  0  0
    2.5934   -1.9554   27.8668 O   0  0  0  0  0  0  0  0  0  0  0  0
    3.1824   -1.9561   30.3078 N   0  0  0  0  0  0  0  0  0  0  0  0
    2.7541   -3.3619   30.4489 C   0  0  0  0  0  0  0  0  0  0  0  0
    1.2316   -3.5120   30.5950 C   0  0  0  0  0  0  0  0  0  0  0  0
    0.7767   -4.7444   31.3156 C   0  0  0  0  0  0  0  0  0  0  0  0
    0.9250   -4.7689   32.7670 C   0  0  0  0  0  0  0  0  0  0  0  0
    0.3082   -5.7273   33.4841 C   0  0  0  0  0  0  0  0  0  0  0  0
    0.5201   -5.5613   34.8881 N   0  0  0  0  0  0  0  0  0  0  0  0
   -0.3736   -4.6354   35.6306 C   0  0  0  0  0  0  0  0  0  0  0  0
    0.4016   -4.0413   36.8068 C   0  0  0  0  0  0  0  0  0  0  0  0
    0.8894   -5.1054   37.7958 C   0  0  0  0  0  0  0  0  0  0  0  0
    1.8235   -6.1363   37.1377 C   0  0  0  0  0  0  0  0  0  0  0  0
    2.3611   -7.1857   38.0921 C   0  0  0  0  0  0  0  0  0  0  0  0
    3.7251   -7.5214   38.0599 C   0  0  0  0  0  0  0  0  0  0  0  0
    4.2546   -8.4592   38.9504 C   0  0  0  0  0  0  0  0  0  0  0  0
    3.4321   -9.0728   39.8906 C   0  0  0  0  0  0  0  0  0  0  0  0
    2.0774   -8.7586   39.9296 C   0  0  0  0  0  0  0  0  0  0  0  0
    1.5429   -7.8333   39.0299 C   0  0  0  0  0  0  0  0  0  0  0  0
    0.9800   -6.9537   35.7655 S   0  0  0  0  0  0  0  0  0  0  0  0
   -0.2478   -7.5479   36.2404 O   0  0  0  0  0  0  0  0  0  0  0  0
    1.9369   -7.6723   34.9408 O   0  0  0  0  0  0  0  0  0  0  0  0
   -0.4421   -6.6991   32.8111 N   0  0  0  0  0  0  0  0  0  0  0  0
   -1.2597   -7.7117   33.2150 C   0  0  0  0  0  0  0  0  0  0  0  0
   -1.7687   -8.3332   32.1713 N   0  0  0  0  0  0  0  0  0  0  0  0
   -1.3102   -7.7245   31.0391 N   0  0  0  0  0  0  0  0  0  0  0  0
   -0.5358   -6.7377   31.4226 C   0  0  0  0  0  0  0  0  0  0  0  0
    0.0952   -5.7140   30.6804 C   0  0  0  0  0  0  0  0  0  0  0  0
    1.0732   -0.5072   29.4791 C   0  0  0  0  0  0  0  0  0  0  0  0
    0.9291    0.0449   30.7573 C   0  0  0  0  0  0  0  0  0  0  0  0
   -0.3229    0.0447   31.3547 C   0  0  0  0  0  0  0  0  0  0  0  0
   -1.4020   -0.4905   30.6657 C   0  0  0  0  0  0  0  0  0  0  0  0
   -2.5626   -0.6110   31.3669 O   0  0  0  0  0  0  0  0  0  0  0  0
   -1.2839   -0.9222   29.3453 C   0  0  0  0  0  0  0  0  0  0  0  0
   -0.0348   -0.9165   28.7374 C   0  0  0  0  0  0  0  0  0  0  0  0
    4.1304   -1.7108   30.5945 H   0  0  0  0  0  0  0  0  0  0  0  0
    3.2576   -3.7471   31.3438 H   0  0  0  0  0  0  0  0  0  0  0  0
    3.1319   -3.9565   29.6098 H   0  0  0  0  0  0  0  0  0  0  0  0
    0.8320   -2.6651   31.1592 H   0  0  0  0  0  0  0  0  0  0  0  0
    0.7779   -3.4695   29.5981 H   0  0  0  0  0  0  0  0  0  0  0  0
    1.5089   -3.9848   33.2412 H   0  0  0  0  0  0  0  0  0  0  0  0
   -0.6993   -3.8177   34.9770 H   0  0  0  0  0  0  0  0  0  0  0  0
   -1.2754   -5.1571   35.9686 H   0  0  0  0  0  0  0  0  0  0  0  0
   -0.2432   -3.3307   37.3367 H   0  0  0  0  0  0  0  0  0  0  0  0
    1.2632   -3.4743   36.4324 H   0  0  0  0  0  0  0  0  0  0  0  0
    0.0091   -5.5916   38.2335 H   0  0  0  0  0  0  0  0  0  0  0  0
    1.4157   -4.6089   38.6204 H   0  0  0  0  0  0  0  0  0  0  0  0
    2.6695   -5.6029   36.6840 H   0  0  0  0  0  0  0  0  0  0  0  0
    4.3943   -7.0545   37.3397 H   0  0  0  0  0  0  0  0  0  0  0  0
    5.3126   -8.7065   38.9117 H   0  0  0  0  0  0  0  0  0  0  0  0
    3.8447   -9.7976   40.5864 H   0  0  0  0  0  0  0  0  0  0  0  0
    1.4215   -9.2480   40.6446 H   0  0  0  0  0  0  0  0  0  0  0  0
    0.4707   -7.6498   39.0646 H   0  0  0  0  0  0  0  0  0  0  0  0
   -1.4643   -7.9601   34.2448 H   0  0  0  0  0  0  0  0  0  0  0  0
   -0.0869   -5.6706   29.6160 H   0  0  0  0  0  0  0  0  0  0  0  0
    1.7996    0.3751   31.3189 H   0  0  0  0  0  0  0  0  0  0  0  0
   -0.4448    0.4029   32.3725 H   0  0  0  0  0  0  0  0  0  0  0  0
   -3.0662   -1.3143   30.9304 H   0  0  0  0  0  0  0  0  0  0  0  0
   -2.1244   -1.3041   28.7778 H   0  0  0  0  0  0  0  0  0  0  0  0
    0.0752   -1.3308   27.7395 H   0  0  0  0  0  0  0  0  0  0  0  0
  1  2  2  0
  2  3  2  0
  2  4  1  0
  4  5  1  0
  5  6  1  0
  6  7  1  0
  7  8  1  0
  8  9  2  0
  9 10  1  0
 10 11  1  0
 11 12  1  0
 12 13  1  0
 13 14  1  0
 14 15  1  0
 15 16  2  0
 16 17  1  0
 17 18  2  0
 18 19  1  0
 19 20  2  0
 14 21  1  0
 21 22  2  0
 21 23  2  0
  9 24  1  0
 24 25  1  0
 25 26  2  0
 26 27  1  0
 27 28  2  0
 28 29  1  0
  2 30  1  0
 30 31  2  0
 31 32  1  0
 32 33  2  0
 33 34  1  0
 33 35  1  0
 35 36  2  0
 29  7  2  0
 36 30  1  0
 21 10  1  0
 28 24  1  0
 20 15  1  0
  4 37  1  0
  5 38  1  0
  5 39  1  0
  6 40  1  0
  6 41  1  0
  8 42  1  0
 11 43  1  0
 11 44  1  0
 12 45  1  0
 12 46  1  0
 13 47  1  0
 13 48  1  0
 14 49  1  0
 16 50  1  0
 17 51  1  0
 18 52  1  0
 19 53  1  0
 20 54  1  0
 25 55  1  0
 29 56  1  0
 31 57  1  0
 32 58  1  0
 34 59  1  0
 35 60  1  0
 36 61  1  0
M  END
>  <Energy>  (750) 
27.881230171966628

>  <compound_id>  (750) 
4340

>  <target_id>  (750) 
1

>  <reference_id>  (750) 
134

>  <inspiration_ids>  (750) 
[152, 134]

>  <energy_score>  (750) 
-63.703188333739234

>  <distance_score>  (750) 
1.0421253768287404

>  <path>  (750) 
/opt/xchem-fragalysis-2/maxwin/BulkDock/SCRATCH/505735/C4340-P134/C4340-P134.minimised.mol

>  <scratch_subdir>  (750) 
/opt/xchem-fragalysis-2/maxwin/BulkDock/SCRATCH/505735/C4340-P134

>  <fragmenstein_runtime>  (750) 
43.08962416648865

>  <fragmenstein_outcome>  (750) 
too moved

>  <fragmenstein_mode>  (750) 
expansion

>  <fragmenstein_error>  (750) 


$$$$
C4341-P152
     RDKit          3D

 58 62  0  0  0  0  0  0  0  0999 V2000
    4.0052   -1.9339   29.7394 O   0  0  0  0  0  0  0  0  0  0  0  0
    2.9688   -2.5790   28.9637 S   0  0  0  0  0  0  0  0  0  0  0  0
    3.1528   -2.9292   27.5784 O   0  0  0  0  0  0  0  0  0  0  0  0
    2.6411   -4.0359   29.7403 N   0  0  0  0  0  0  0  0  0  0  0  0
    2.4931   -4.0010   31.1856 C   0  0  0  0  0  0  0  0  0  0  0  0
    1.4084   -4.9546   31.6376 C   0  0  0  0  0  0  0  0  0  0  0  0
    1.2367   -5.0011   33.0884 C   0  0  0  0  0  0  0  0  0  0  0  0
    0.3548   -5.8532   33.6398 C   0  0  0  0  0  0  0  0  0  0  0  0
    0.3754   -5.7892   35.0578 N   0  0  0  0  0  0  0  0  0  0  0  0
   -0.3629   -4.7464   35.7839 C   0  0  0  0  0  0  0  0  0  0  0  0
    0.5755   -4.1184   36.8221 C   0  0  0  0  0  0  0  0  0  0  0  0
    1.6698   -5.0603   37.3601 C   0  0  0  0  0  0  0  0  0  0  0  0
    1.1696   -6.4973   37.5211 C   0  0  0  0  0  0  0  0  0  0  0  0
    2.0822   -7.4475   38.2562 C   0  0  0  0  0  0  0  0  0  0  0  0
    3.4683   -7.4888   38.0513 C   0  0  0  0  0  0  0  0  0  0  0  0
    4.2659   -8.3817   38.7729 C   0  0  0  0  0  0  0  0  0  0  0  0
    3.6914   -9.2411   39.7064 C   0  0  0  0  0  0  0  0  0  0  0  0
    2.3178   -9.2137   39.9165 C   0  0  0  0  0  0  0  0  0  0  0  0
    1.5190   -8.3285   39.1941 C   0  0  0  0  0  0  0  0  0  0  0  0
    0.7190   -7.2085   35.9109 S   0  0  0  0  0  0  0  0  0  0  0  0
   -0.5372   -7.9037   36.0701 O   0  0  0  0  0  0  0  0  0  0  0  0
    1.8370   -7.8285   35.2213 O   0  0  0  0  0  0  0  0  0  0  0  0
   -0.4026   -6.6879   32.8132 N   0  0  0  0  0  0  0  0  0  0  0  0
   -1.3480   -7.6476   33.0435 C   0  0  0  0  0  0  0  0  0  0  0  0
   -1.7620   -8.1661   31.9062 N   0  0  0  0  0  0  0  0  0  0  0  0
   -1.1016   -7.5327   30.8857 N   0  0  0  0  0  0  0  0  0  0  0  0
   -0.2976   -6.6436   31.4263 C   0  0  0  0  0  0  0  0  0  0  0  0
    0.6273   -5.7286   30.8496 C   0  0  0  0  0  0  0  0  0  0  0  0
    1.4242   -1.7130   29.2029 C   0  0  0  0  0  0  0  0  0  0  0  0
    0.2306   -2.4255   29.0402 C   0  0  0  0  0  0  0  0  0  0  0  0
   -0.8838   -2.0565   29.7830 C   0  0  0  0  0  0  0  0  0  0  0  0
   -0.7941   -0.9756   30.6493 C   0  0  0  0  0  0  0  0  0  0  0  0
   -1.8185   -0.7801   31.5240 O   0  0  0  0  0  0  0  0  0  0  0  0
    0.3377   -0.1653   30.6892 C   0  0  0  0  0  0  0  0  0  0  0  0
    1.4604   -0.5326   29.9536 C   0  0  0  0  0  0  0  0  0  0  0  0
    3.1058   -4.8247   29.3000 H   0  0  0  0  0  0  0  0  0  0  0  0
    3.4517   -4.2795   31.6372 H   0  0  0  0  0  0  0  0  0  0  0  0
    2.2379   -2.9979   31.5433 H   0  0  0  0  0  0  0  0  0  0  0  0
    1.8545   -4.3478   33.6996 H   0  0  0  0  0  0  0  0  0  0  0  0
   -1.2399   -5.1863   36.2715 H   0  0  0  0  0  0  0  0  0  0  0  0
   -0.7320   -3.9669   35.1091 H   0  0  0  0  0  0  0  0  0  0  0  0
   -0.0299   -3.7401   37.6548 H   0  0  0  0  0  0  0  0  0  0  0  0
    1.0687   -3.2420   36.3831 H   0  0  0  0  0  0  0  0  0  0  0  0
    2.5235   -5.0333   36.6703 H   0  0  0  0  0  0  0  0  0  0  0  0
    2.0332   -4.6675   38.3175 H   0  0  0  0  0  0  0  0  0  0  0  0
    0.2216   -6.4375   38.0751 H   0  0  0  0  0  0  0  0  0  0  0  0
    3.9477   -6.8384   37.3238 H   0  0  0  0  0  0  0  0  0  0  0  0
    5.3394   -8.4099   38.6034 H   0  0  0  0  0  0  0  0  0  0  0  0
    4.3104   -9.9406   40.2620 H   0  0  0  0  0  0  0  0  0  0  0  0
    1.8570   -9.9048   40.6204 H   0  0  0  0  0  0  0  0  0  0  0  0
    0.4439   -8.3575   39.3668 H   0  0  0  0  0  0  0  0  0  0  0  0
   -1.7037   -7.9359   34.0202 H   0  0  0  0  0  0  0  0  0  0  0  0
    0.6994   -5.7051   29.7695 H   0  0  0  0  0  0  0  0  0  0  0  0
    0.1944   -3.3374   28.4518 H   0  0  0  0  0  0  0  0  0  0  0  0
   -1.7903   -2.6509   29.7297 H   0  0  0  0  0  0  0  0  0  0  0  0
   -1.8209    0.1623   31.7599 H   0  0  0  0  0  0  0  0  0  0  0  0
    0.3905    0.6951   31.3492 H   0  0  0  0  0  0  0  0  0  0  0  0
    2.3886    0.0206   30.0810 H   0  0  0  0  0  0  0  0  0  0  0  0
  1  2  2  0
  2  3  2  0
  2  4  1  0
  4  5  1  0
  5  6  1  0
  6  7  1  0
  7  8  2  0
  8  9  1  0
  9 10  1  0
 10 11  1  0
 11 12  1  0
 12 13  1  0
 13 14  1  0
 14 15  2  0
 15 16  1  0
 16 17  2  0
 17 18  1  0
 18 19  2  0
 13 20  1  0
 20 21  2  0
 20 22  2  0
  8 23  1  0
 23 24  1  0
 24 25  2  0
 25 26  1  0
 26 27  2  0
 27 28  1  0
  2 29  1  0
 29 30  2  0
 30 31  1  0
 31 32  2  0
 32 33  1  0
 32 34  1  0
 34 35  2  0
 28  6  2  0
 35 29  1  0
 20  9  1  0
 27 23  1  0
 19 14  1  0
  4 36  1  0
  5 37  1  0
  5 38  1  0
  7 39  1  0
 10 40  1  0
 10 41  1  0
 11 42  1  0
 11 43  1  0
 12 44  1  0
 12 45  1  0
 13 46  1  0
 15 47  1  0
 16 48  1  0
 17 49  1  0
 18 50  1  0
 19 51  1  0
 24 52  1  0
 28 53  1  0
 30 54  1  0
 31 55  1  0
 33 56  1  0
 34 57  1  0
 35 58  1  0
M  END
>  <Energy>  (751) 
11.377383088221318

>  <compound_id>  (751) 
4341

>  <target_id>  (751) 
1

>  <reference_id>  (751) 
152

>  <inspiration_ids>  (751) 
[152, 135]

>  <energy_score>  (751) 
-51.92936158599741

>  <distance_score>  (751) 
1.2167645871678914

>  <path>  (751) 
/opt/xchem-fragalysis-2/maxwin/BulkDock/SCRATCH/505735/C4341-P152/C4341-P152.minimised.mol

>  <scratch_subdir>  (751) 
/opt/xchem-fragalysis-2/maxwin/BulkDock/SCRATCH/505735/C4341-P152

>  <fragmenstein_runtime>  (751) 
10.180690288543701

>  <fragmenstein_outcome>  (751) 
too moved

>  <fragmenstein_mode>  (751) 
expansion

>  <fragmenstein_error>  (751) 


$$$$
C4341-P135
     RDKit          3D

 58 62  0  0  0  0  0  0  0  0999 V2000
    4.0098   -2.1061   29.4600 O   0  0  0  0  0  0  0  0  0  0  0  0
    2.8884   -2.7153   28.7792 S   0  0  0  0  0  0  0  0  0  0  0  0
    2.9302   -3.0569   27.3800 O   0  0  0  0  0  0  0  0  0  0  0  0
    2.6006   -4.1724   29.5664 N   0  0  0  0  0  0  0  0  0  0  0  0
    2.5776   -4.1755   31.0194 C   0  0  0  0  0  0  0  0  0  0  0  0
    1.4854   -5.0931   31.5292 C   0  0  0  0  0  0  0  0  0  0  0  0
    1.3134   -5.0808   32.9831 C   0  0  0  0  0  0  0  0  0  0  0  0
    0.4138   -5.8953   33.5645 C   0  0  0  0  0  0  0  0  0  0  0  0
    0.4228   -5.7782   34.9821 N   0  0  0  0  0  0  0  0  0  0  0  0
   -0.3769   -4.7499   35.6654 C   0  0  0  0  0  0  0  0  0  0  0  0
    0.5062   -4.0851   36.7308 C   0  0  0  0  0  0  0  0  0  0  0  0
    1.6145   -4.9867   37.3133 C   0  0  0  0  0  0  0  0  0  0  0  0
    1.1533   -6.4351   37.4873 C   0  0  0  0  0  0  0  0  0  0  0  0
    2.0784   -7.3541   38.2477 C   0  0  0  0  0  0  0  0  0  0  0  0
    3.4659   -7.3790   38.0494 C   0  0  0  0  0  0  0  0  0  0  0  0
    4.2721   -8.2578   38.7795 C   0  0  0  0  0  0  0  0  0  0  0  0
    3.7057   -9.1190   39.7162 C   0  0  0  0  0  0  0  0  0  0  0  0
    2.3317   -9.1054   39.9230 C   0  0  0  0  0  0  0  0  0  0  0  0
    1.5249   -8.2329   39.1933 C   0  0  0  0  0  0  0  0  0  0  0  0
    0.7478   -7.1807   35.8801 S   0  0  0  0  0  0  0  0  0  0  0  0
   -0.5136   -7.8740   36.0229 O   0  0  0  0  0  0  0  0  0  0  0  0
    1.8872   -7.8073   35.2341 O   0  0  0  0  0  0  0  0  0  0  0  0
   -0.3549   -6.7470   32.7658 N   0  0  0  0  0  0  0  0  0  0  0  0
   -1.3191   -7.6774   33.0282 C   0  0  0  0  0  0  0  0  0  0  0  0
   -1.7402   -8.2356   31.9121 N   0  0  0  0  0  0  0  0  0  0  0  0
   -1.0703   -7.6525   30.8698 N   0  0  0  0  0  0  0  0  0  0  0  0
   -0.2478   -6.7607   31.3794 C   0  0  0  0  0  0  0  0  0  0  0  0
    0.6918   -5.8851   30.7723 C   0  0  0  0  0  0  0  0  0  0  0  0
    1.3992   -1.8094   29.1666 C   0  0  0  0  0  0  0  0  0  0  0  0
    0.1665   -2.4645   29.0683 C   0  0  0  0  0  0  0  0  0  0  0  0
   -0.8893   -2.0446   29.8707 C   0  0  0  0  0  0  0  0  0  0  0  0
   -0.6994   -0.9789   30.7423 C   0  0  0  0  0  0  0  0  0  0  0  0
   -1.6673   -0.7399   31.6702 O   0  0  0  0  0  0  0  0  0  0  0  0
    0.4744   -0.2295   30.7296 C   0  0  0  0  0  0  0  0  0  0  0  0
    1.5342   -0.6427   29.9278 C   0  0  0  0  0  0  0  0  0  0  0  0
    2.9798   -4.9682   29.0617 H   0  0  0  0  0  0  0  0  0  0  0  0
    3.5519   -4.5161   31.3861 H   0  0  0  0  0  0  0  0  0  0  0  0
    2.4025   -3.1707   31.4182 H   0  0  0  0  0  0  0  0  0  0  0  0
    1.9418   -4.4157   33.5702 H   0  0  0  0  0  0  0  0  0  0  0  0
   -1.2591   -5.2091   36.1260 H   0  0  0  0  0  0  0  0  0  0  0  0
   -0.7450   -3.9923   34.9647 H   0  0  0  0  0  0  0  0  0  0  0  0
   -0.1387   -3.7217   37.5402 H   0  0  0  0  0  0  0  0  0  0  0  0
    0.9846   -3.1959   36.3014 H   0  0  0  0  0  0  0  0  0  0  0  0
    2.4848   -4.9456   36.6453 H   0  0  0  0  0  0  0  0  0  0  0  0
    1.9416   -4.5678   38.2728 H   0  0  0  0  0  0  0  0  0  0  0  0
    0.1949   -6.3934   38.0248 H   0  0  0  0  0  0  0  0  0  0  0  0
    3.9392   -6.7301   37.3167 H   0  0  0  0  0  0  0  0  0  0  0  0
    5.3462   -8.2748   38.6120 H   0  0  0  0  0  0  0  0  0  0  0  0
    4.3318   -9.8086   40.2756 H   0  0  0  0  0  0  0  0  0  0  0  0
    1.8759   -9.7986   40.6276 H   0  0  0  0  0  0  0  0  0  0  0  0
    0.4498   -8.2760   39.3612 H   0  0  0  0  0  0  0  0  0  0  0  0
   -1.6829   -7.9146   34.0144 H   0  0  0  0  0  0  0  0  0  0  0  0
    0.7645   -5.9046   29.6930 H   0  0  0  0  0  0  0  0  0  0  0  0
    0.0550   -3.3648   28.4707 H   0  0  0  0  0  0  0  0  0  0  0  0
   -1.8292   -2.5885   29.8593 H   0  0  0  0  0  0  0  0  0  0  0  0
   -1.4908    0.1267   32.0714 H   0  0  0  0  0  0  0  0  0  0  0  0
    0.6089    0.6211   31.3905 H   0  0  0  0  0  0  0  0  0  0  0  0
    2.4927   -0.1329   30.0020 H   0  0  0  0  0  0  0  0  0  0  0  0
  1  2  2  0
  2  3  2  0
  2  4  1  0
  4  5  1  0
  5  6  1  0
  6  7  1  0
  7  8  2  0
  8  9  1  0
  9 10  1  0
 10 11  1  0
 11 12  1  0
 12 13  1  0
 13 14  1  0
 14 15  2  0
 15 16  1  0
 16 17  2  0
 17 18  1  0
 18 19  2  0
 13 20  1  0
 20 21  2  0
 20 22  2  0
  8 23  1  0
 23 24  1  0
 24 25  2  0
 25 26  1  0
 26 27  2  0
 27 28  1  0
  2 29  1  0
 29 30  2  0
 30 31  1  0
 31 32  2  0
 32 33  1  0
 32 34  1  0
 34 35  2  0
 28  6  2  0
 35 29  1  0
 20  9  1  0
 27 23  1  0
 19 14  1  0
  4 36  1  0
  5 37  1  0
  5 38  1  0
  7 39  1  0
 10 40  1  0
 10 41  1  0
 11 42  1  0
 11 43  1  0
 12 44  1  0
 12 45  1  0
 13 46  1  0
 15 47  1  0
 16 48  1  0
 17 49  1  0
 18 50  1  0
 19 51  1  0
 24 52  1  0
 28 53  1  0
 30 54  1  0
 31 55  1  0
 33 56  1  0
 34 57  1  0
 35 58  1  0
M  END
>  <Energy>  (752) 
9.5817924721382646

>  <compound_id>  (752) 
4341

>  <target_id>  (752) 
1

>  <reference_id>  (752) 
135

>  <inspiration_ids>  (752) 
[152, 135]

>  <energy_score>  (752) 
-53.72495220208145

>  <distance_score>  (752) 
1.2447640553852464

>  <path>  (752) 
/opt/xchem-fragalysis-2/maxwin/BulkDock/SCRATCH/505735/C4341-P135/C4341-P135.minimised.mol

>  <scratch_subdir>  (752) 
/opt/xchem-fragalysis-2/maxwin/BulkDock/SCRATCH/505735/C4341-P135

>  <fragmenstein_runtime>  (752) 
7.500429391860962

>  <fragmenstein_outcome>  (752) 
too moved

>  <fragmenstein_mode>  (752) 
expansion

>  <fragmenstein_error>  (752) 


$$$$
C4343-P152
     RDKit          3D

 57 61  0  0  0  0  0  0  0  0999 V2000
   -1.4266   -0.6948   27.9165 C   0  0  0  0  0  0  0  0  0  0  0  0
   -0.0874   -0.4730   28.3921 N   0  0  0  0  0  0  0  0  0  0  0  0
    0.6442    0.6735   28.3361 C   0  0  0  0  0  0  0  0  0  0  0  0
    1.8522    0.3798   28.9291 C   0  0  0  0  0  0  0  0  0  0  0  0
    1.7379   -0.9689   29.3435 C   0  0  0  0  0  0  0  0  0  0  0  0
    2.9531   -1.9383   30.1707 S   0  0  0  0  0  0  0  0  0  0  0  0
    3.4768   -2.8251   29.1548 O   0  0  0  0  0  0  0  0  0  0  0  0
    3.7772   -0.9874   30.8839 O   0  0  0  0  0  0  0  0  0  0  0  0
    2.1855   -2.8919   31.3663 N   0  0  0  0  0  0  0  0  0  0  0  0
    0.9331   -3.4901   30.8944 C   0  0  0  0  0  0  0  0  0  0  0  0
    0.6010   -4.7670   31.5922 C   0  0  0  0  0  0  0  0  0  0  0  0
    0.6779   -4.8395   33.0430 C   0  0  0  0  0  0  0  0  0  0  0  0
    0.0915   -5.8650   33.6883 C   0  0  0  0  0  0  0  0  0  0  0  0
    0.2668   -5.7895   35.1006 N   0  0  0  0  0  0  0  0  0  0  0  0
   -0.3558   -4.7180   35.8955 C   0  0  0  0  0  0  0  0  0  0  0  0
    0.7134   -4.0815   36.7913 C   0  0  0  0  0  0  0  0  0  0  0  0
    1.8042   -5.0510   37.2833 C   0  0  0  0  0  0  0  0  0  0  0  0
    1.2582   -6.4600   37.5098 C   0  0  0  0  0  0  0  0  0  0  0  0
    2.1531   -7.4349   38.2331 C   0  0  0  0  0  0  0  0  0  0  0  0
    3.5360   -7.5067   38.0204 C   0  0  0  0  0  0  0  0  0  0  0  0
    4.3160   -8.4198   38.7359 C   0  0  0  0  0  0  0  0  0  0  0  0
    3.7269   -9.2699   39.6692 C   0  0  0  0  0  0  0  0  0  0  0  0
    2.3551   -9.2142   39.8849 C   0  0  0  0  0  0  0  0  0  0  0  0
    1.5738   -8.3088   39.1690 C   0  0  0  0  0  0  0  0  0  0  0  0
    0.7087   -7.1907   35.9406 S   0  0  0  0  0  0  0  0  0  0  0  0
   -0.5159   -7.9102   36.2023 O   0  0  0  0  0  0  0  0  0  0  0  0
    1.7890   -7.7964   35.1828 O   0  0  0  0  0  0  0  0  0  0  0  0
   -0.5613   -6.8523   32.9356 N   0  0  0  0  0  0  0  0  0  0  0  0
   -1.3807   -7.8978   33.2470 C   0  0  0  0  0  0  0  0  0  0  0  0
   -1.7685   -8.5229   32.1554 N   0  0  0  0  0  0  0  0  0  0  0  0
   -1.2376   -7.8734   31.0793 N   0  0  0  0  0  0  0  0  0  0  0  0
   -0.5448   -6.8617   31.5450 C   0  0  0  0  0  0  0  0  0  0  0  0
    0.0755   -5.7836   30.8789 C   0  0  0  0  0  0  0  0  0  0  0  0
    0.5184   -1.4593   29.0609 N   0  0  0  0  0  0  0  0  0  0  0  0
   -1.7361    0.1413   27.2863 H   0  0  0  0  0  0  0  0  0  0  0  0
   -2.0562   -0.7776   28.8022 H   0  0  0  0  0  0  0  0  0  0  0  0
   -1.4602   -1.6291   27.3590 H   0  0  0  0  0  0  0  0  0  0  0  0
    0.2651    1.5758   27.8750 H   0  0  0  0  0  0  0  0  0  0  0  0
    2.7025    1.0374   29.0481 H   0  0  0  0  0  0  0  0  0  0  0  0
    2.0827   -2.3192   32.2020 H   0  0  0  0  0  0  0  0  0  0  0  0
    0.9957   -3.7094   29.8230 H   0  0  0  0  0  0  0  0  0  0  0  0
    0.1116   -2.7913   31.0903 H   0  0  0  0  0  0  0  0  0  0  0  0
    1.2235   -4.0645   33.5701 H   0  0  0  0  0  0  0  0  0  0  0  0
   -0.8058   -3.9450   35.2642 H   0  0  0  0  0  0  0  0  0  0  0  0
   -1.1693   -5.1363   36.4994 H   0  0  0  0  0  0  0  0  0  0  0  0
    0.2144   -3.6201   37.6522 H   0  0  0  0  0  0  0  0  0  0  0  0
    1.2044   -3.2631   36.2500 H   0  0  0  0  0  0  0  0  0  0  0  0
    2.6115   -5.0755   36.5397 H   0  0  0  0  0  0  0  0  0  0  0  0
    2.2435   -4.6502   38.2048 H   0  0  0  0  0  0  0  0  0  0  0  0
    0.3404   -6.3475   38.1053 H   0  0  0  0  0  0  0  0  0  0  0  0
    4.0268   -6.8643   37.2932 H   0  0  0  0  0  0  0  0  0  0  0  0
    5.3880   -8.4712   38.5612 H   0  0  0  0  0  0  0  0  0  0  0  0
    4.3331   -9.9848   40.2191 H   0  0  0  0  0  0  0  0  0  0  0  0
    1.8822   -9.8985   40.5874 H   0  0  0  0  0  0  0  0  0  0  0  0
    0.4988   -8.3150   39.3449 H   0  0  0  0  0  0  0  0  0  0  0  0
   -1.6903   -8.1582   34.2453 H   0  0  0  0  0  0  0  0  0  0  0  0
   -0.0265   -5.7322   29.8008 H   0  0  0  0  0  0  0  0  0  0  0  0
  1  2  1  0
  2  3  1  0
  3  4  2  0
  4  5  1  0
  5  6  1  0
  6  7  2  0
  6  8  2  0
  6  9  1  0
  9 10  1  0
 10 11  1  0
 11 12  1  0
 12 13  2  0
 13 14  1  0
 14 15  1  0
 15 16  1  0
 16 17  1  0
 17 18  1  0
 18 19  1  0
 19 20  2  0
 20 21  1  0
 21 22  2  0
 22 23  1  0
 23 24  2  0
 18 25  1  0
 25 26  2  0
 25 27  2  0
 13 28  1  0
 28 29  1  0
 29 30  2  0
 30 31  1  0
 31 32  2  0
 32 33  1  0
  5 34  2  0
 34  2  1  0
 33 11  2  0
 25 14  1  0
 32 28  1  0
 24 19  1  0
  1 35  1  0
  1 36  1  0
  1 37  1  0
  3 38  1  0
  4 39  1  0
  9 40  1  0
 10 41  1  0
 10 42  1  0
 12 43  1  0
 15 44  1  0
 15 45  1  0
 16 46  1  0
 16 47  1  0
 17 48  1  0
 17 49  1  0
 18 50  1  0
 20 51  1  0
 21 52  1  0
 22 53  1  0
 23 54  1  0
 24 55  1  0
 29 56  1  0
 33 57  1  0
M  END
>  <Energy>  (753) 
81.373657303265475

>  <compound_id>  (753) 
4343

>  <target_id>  (753) 
1

>  <reference_id>  (753) 
152

>  <inspiration_ids>  (753) 
[152, 141]

>  <energy_score>  (753) 
-65.90522687021976

>  <distance_score>  (753) 
0.8617589777675896

>  <path>  (753) 
/opt/xchem-fragalysis-2/maxwin/BulkDock/SCRATCH/505735/C4343-P152/C4343-P152.minimised.mol

>  <scratch_subdir>  (753) 
/opt/xchem-fragalysis-2/maxwin/BulkDock/SCRATCH/505735/C4343-P152

>  <fragmenstein_runtime>  (753) 
7.110883474349976

>  <fragmenstein_outcome>  (753) 
acceptable

>  <fragmenstein_mode>  (753) 
expansion

>  <fragmenstein_error>  (753) 


$$$$
C4343-P141
     RDKit          3D

 57 61  0  0  0  0  0  0  0  0999 V2000
   -1.6503   -0.5974   28.0044 C   0  0  0  0  0  0  0  0  0  0  0  0
   -0.2877   -0.3921   28.4255 N   0  0  0  0  0  0  0  0  0  0  0  0
    0.4910    0.7063   28.2197 C   0  0  0  0  0  0  0  0  0  0  0  0
    1.7267    0.3980   28.7425 C   0  0  0  0  0  0  0  0  0  0  0  0
    1.5798   -0.8998   29.2880 C   0  0  0  0  0  0  0  0  0  0  0  0
    2.8366   -1.8680   30.0568 S   0  0  0  0  0  0  0  0  0  0  0  0
    3.3078   -2.7563   29.0169 O   0  0  0  0  0  0  0  0  0  0  0  0
    3.6953   -0.9124   30.7217 O   0  0  0  0  0  0  0  0  0  0  0  0
    2.1407   -2.8214   31.2933 N   0  0  0  0  0  0  0  0  0  0  0  0
    0.8714   -3.4275   30.8889 C   0  0  0  0  0  0  0  0  0  0  0  0
    0.6142   -4.7277   31.5731 C   0  0  0  0  0  0  0  0  0  0  0  0
    0.6837   -4.7948   33.0252 C   0  0  0  0  0  0  0  0  0  0  0  0
    0.1181   -5.8343   33.6655 C   0  0  0  0  0  0  0  0  0  0  0  0
    0.2631   -5.7503   35.0818 N   0  0  0  0  0  0  0  0  0  0  0  0
   -0.4187   -4.7041   35.8623 C   0  0  0  0  0  0  0  0  0  0  0  0
    0.6055   -4.0399   36.7909 C   0  0  0  0  0  0  0  0  0  0  0  0
    1.7170   -4.9763   37.3035 C   0  0  0  0  0  0  0  0  0  0  0  0
    1.2126   -6.4031   37.5168 C   0  0  0  0  0  0  0  0  0  0  0  0
    2.1311   -7.3510   38.2482 C   0  0  0  0  0  0  0  0  0  0  0  0
    3.5135   -7.4031   38.0249 C   0  0  0  0  0  0  0  0  0  0  0  0
    4.3138   -8.3009   38.7382 C   0  0  0  0  0  0  0  0  0  0  0  0
    3.7463   -9.1548   39.6813 C   0  0  0  0  0  0  0  0  0  0  0  0
    2.3763   -9.1165   39.9101 C   0  0  0  0  0  0  0  0  0  0  0  0
    1.5752   -8.2255   39.1971 C   0  0  0  0  0  0  0  0  0  0  0  0
    0.7104   -7.1441   35.9363 S   0  0  0  0  0  0  0  0  0  0  0  0
   -0.5113   -7.8808   36.1695 O   0  0  0  0  0  0  0  0  0  0  0  0
    1.8215   -7.7297   35.2091 O   0  0  0  0  0  0  0  0  0  0  0  0
   -0.4993   -6.8361   32.9038 N   0  0  0  0  0  0  0  0  0  0  0  0
   -1.3189   -7.8809   33.2078 C   0  0  0  0  0  0  0  0  0  0  0  0
   -1.6829   -8.5212   32.1164 N   0  0  0  0  0  0  0  0  0  0  0  0
   -1.1402   -7.8775   31.0439 N   0  0  0  0  0  0  0  0  0  0  0  0
   -0.4610   -6.8564   31.5136 C   0  0  0  0  0  0  0  0  0  0  0  0
    0.1407   -5.7648   30.8529 C   0  0  0  0  0  0  0  0  0  0  0  0
    0.3115   -1.3356   29.1651 N   0  0  0  0  0  0  0  0  0  0  0  0
   -1.8990    0.1095   27.2099 H   0  0  0  0  0  0  0  0  0  0  0  0
   -2.2795   -0.4319   28.8800 H   0  0  0  0  0  0  0  0  0  0  0  0
   -1.7656   -1.6229   27.6522 H   0  0  0  0  0  0  0  0  0  0  0  0
    0.1247    1.5782   27.6942 H   0  0  0  0  0  0  0  0  0  0  0  0
    2.6193    1.0081   28.7206 H   0  0  0  0  0  0  0  0  0  0  0  0
    2.0817   -2.2507   32.1343 H   0  0  0  0  0  0  0  0  0  0  0  0
    0.8591   -3.6145   29.8095 H   0  0  0  0  0  0  0  0  0  0  0  0
    0.0526   -2.7501   31.1580 H   0  0  0  0  0  0  0  0  0  0  0  0
    1.2009   -4.0019   33.5547 H   0  0  0  0  0  0  0  0  0  0  0  0
   -0.8781   -3.9451   35.2201 H   0  0  0  0  0  0  0  0  0  0  0  0
   -1.2350   -5.1514   36.4416 H   0  0  0  0  0  0  0  0  0  0  0  0
    0.0695   -3.6032   37.6423 H   0  0  0  0  0  0  0  0  0  0  0  0
    1.0820   -3.2008   36.2686 H   0  0  0  0  0  0  0  0  0  0  0  0
    2.5398   -4.9728   36.5768 H   0  0  0  0  0  0  0  0  0  0  0  0
    2.1244   -4.5643   38.2347 H   0  0  0  0  0  0  0  0  0  0  0  0
    0.2826   -6.3228   38.0982 H   0  0  0  0  0  0  0  0  0  0  0  0
    3.9873   -6.7597   37.2874 H   0  0  0  0  0  0  0  0  0  0  0  0
    5.3844   -8.3383   38.5522 H   0  0  0  0  0  0  0  0  0  0  0  0
    4.3682   -9.8590   40.2270 H   0  0  0  0  0  0  0  0  0  0  0  0
    1.9186   -9.8052   40.6178 H   0  0  0  0  0  0  0  0  0  0  0  0
    0.5019   -8.2497   39.3801 H   0  0  0  0  0  0  0  0  0  0  0  0
   -1.6496   -8.1219   34.2034 H   0  0  0  0  0  0  0  0  0  0  0  0
    0.0454   -5.7133   29.7746 H   0  0  0  0  0  0  0  0  0  0  0  0
  1  2  1  0
  2  3  1  0
  3  4  2  0
  4  5  1  0
  5  6  1  0
  6  7  2  0
  6  8  2  0
  6  9  1  0
  9 10  1  0
 10 11  1  0
 11 12  1  0
 12 13  2  0
 13 14  1  0
 14 15  1  0
 15 16  1  0
 16 17  1  0
 17 18  1  0
 18 19  1  0
 19 20  2  0
 20 21  1  0
 21 22  2  0
 22 23  1  0
 23 24  2  0
 18 25  1  0
 25 26  2  0
 25 27  2  0
 13 28  1  0
 28 29  1  0
 29 30  2  0
 30 31  1  0
 31 32  2  0
 32 33  1  0
  5 34  2  0
 34  2  1  0
 33 11  2  0
 25 14  1  0
 32 28  1  0
 24 19  1  0
  1 35  1  0
  1 36  1  0
  1 37  1  0
  3 38  1  0
  4 39  1  0
  9 40  1  0
 10 41  1  0
 10 42  1  0
 12 43  1  0
 15 44  1  0
 15 45  1  0
 16 46  1  0
 16 47  1  0
 17 48  1  0
 17 49  1  0
 18 50  1  0
 20 51  1  0
 21 52  1  0
 22 53  1  0
 23 54  1  0
 24 55  1  0
 29 56  1  0
 33 57  1  0
M  END
>  <Energy>  (754) 
81.168075110863967

>  <compound_id>  (754) 
4343

>  <target_id>  (754) 
1

>  <reference_id>  (754) 
141

>  <inspiration_ids>  (754) 
[152, 141]

>  <energy_score>  (754) 
-66.11080906262302

>  <distance_score>  (754) 
0.8492019271541771

>  <path>  (754) 
/opt/xchem-fragalysis-2/maxwin/BulkDock/SCRATCH/505735/C4343-P141/C4343-P141.minimised.mol

>  <scratch_subdir>  (754) 
/opt/xchem-fragalysis-2/maxwin/BulkDock/SCRATCH/505735/C4343-P141

>  <fragmenstein_runtime>  (754) 
6.853283405303955

>  <fragmenstein_outcome>  (754) 
acceptable

>  <fragmenstein_mode>  (754) 
expansion

>  <fragmenstein_error>  (754) 


$$$$
C4343-P152
     RDKit          3D

 57 61  0  0  0  0  0  0  0  0999 V2000
   -1.4442   -0.8843   27.7461 C   0  0  0  0  0  0  0  0  0  0  0  0
   -0.2586   -0.4250   28.4182 N   0  0  0  0  0  0  0  0  0  0  0  0
    0.0709    0.8603   28.7264 C   0  0  0  0  0  0  0  0  0  0  0  0
    1.1585    0.7795   29.5667 C   0  0  0  0  0  0  0  0  0  0  0  0
    1.4069   -0.6085   29.7089 C   0  0  0  0  0  0  0  0  0  0  0  0
    2.5203   -1.3512   30.8391 S   0  0  0  0  0  0  0  0  0  0  0  0
    2.1602   -0.7911   32.1266 O   0  0  0  0  0  0  0  0  0  0  0  0
    3.8421   -1.1862   30.2806 O   0  0  0  0  0  0  0  0  0  0  0  0
    2.2095   -3.0299   30.9688 N   0  0  0  0  0  0  0  0  0  0  0  0
    0.7752   -3.3341   31.0055 C   0  0  0  0  0  0  0  0  0  0  0  0
    0.5284   -4.6699   31.6206 C   0  0  0  0  0  0  0  0  0  0  0  0
    0.6830   -4.7662   33.0621 C   0  0  0  0  0  0  0  0  0  0  0  0
    0.1495   -5.8148   33.7105 C   0  0  0  0  0  0  0  0  0  0  0  0
    0.3795   -5.7375   35.1130 N   0  0  0  0  0  0  0  0  0  0  0  0
   -0.4496   -4.8213   35.9298 C   0  0  0  0  0  0  0  0  0  0  0  0
    0.3972   -4.2642   37.0707 C   0  0  0  0  0  0  0  0  0  0  0  0
    0.9237   -5.3632   37.9959 C   0  0  0  0  0  0  0  0  0  0  0  0
    1.8242   -6.3661   37.2570 C   0  0  0  0  0  0  0  0  0  0  0  0
    2.3975   -7.4431   38.1520 C   0  0  0  0  0  0  0  0  0  0  0  0
    3.7751   -7.7158   38.1144 C   0  0  0  0  0  0  0  0  0  0  0  0
    4.3347   -8.6835   38.9512 C   0  0  0  0  0  0  0  0  0  0  0  0
    3.5277   -9.3915   39.8366 C   0  0  0  0  0  0  0  0  0  0  0  0
    2.1611   -9.1364   39.8818 C   0  0  0  0  0  0  0  0  0  0  0  0
    1.5975   -8.1744   39.0430 C   0  0  0  0  0  0  0  0  0  0  0  0
    0.9259   -7.1428   35.8922 S   0  0  0  0  0  0  0  0  0  0  0  0
   -0.2555   -7.8156   36.3820 O   0  0  0  0  0  0  0  0  0  0  0  0
    1.8458   -7.8026   34.9808 O   0  0  0  0  0  0  0  0  0  0  0  0
   -0.5148   -6.8029   32.9753 N   0  0  0  0  0  0  0  0  0  0  0  0
   -1.2874   -7.8730   33.3181 C   0  0  0  0  0  0  0  0  0  0  0  0
   -1.7155   -8.4929   32.2383 N   0  0  0  0  0  0  0  0  0  0  0  0
   -1.2526   -7.8175   31.1426 N   0  0  0  0  0  0  0  0  0  0  0  0
   -0.5627   -6.7923   31.5846 C   0  0  0  0  0  0  0  0  0  0  0  0
   -0.0031   -5.6831   30.9075 C   0  0  0  0  0  0  0  0  0  0  0  0
    0.5470   -1.3337   28.9773 N   0  0  0  0  0  0  0  0  0  0  0  0
   -2.2065   -0.9850   28.5133 H   0  0  0  0  0  0  0  0  0  0  0  0
   -1.2611   -1.8696   27.3304 H   0  0  0  0  0  0  0  0  0  0  0  0
   -1.7302   -0.1684   26.9744 H   0  0  0  0  0  0  0  0  0  0  0  0
   -0.5023    1.7037   28.3633 H   0  0  0  0  0  0  0  0  0  0  0  0
    1.6714    1.5968   30.0549 H   0  0  0  0  0  0  0  0  0  0  0  0
    2.7385   -3.3711   31.7679 H   0  0  0  0  0  0  0  0  0  0  0  0
    0.2103   -2.5802   31.5663 H   0  0  0  0  0  0  0  0  0  0  0  0
    0.3912   -3.3718   29.9843 H   0  0  0  0  0  0  0  0  0  0  0  0
    1.2066   -3.9693   33.5834 H   0  0  0  0  0  0  0  0  0  0  0  0
   -1.3329   -5.3460   36.3070 H   0  0  0  0  0  0  0  0  0  0  0  0
   -0.8052   -3.9804   35.3243 H   0  0  0  0  0  0  0  0  0  0  0  0
    1.2422   -3.6949   36.6637 H   0  0  0  0  0  0  0  0  0  0  0  0
   -0.2089   -3.5636   37.6567 H   0  0  0  0  0  0  0  0  0  0  0  0
    0.0642   -5.8670   38.4549 H   0  0  0  0  0  0  0  0  0  0  0  0
    1.4881   -4.8983   38.8139 H   0  0  0  0  0  0  0  0  0  0  0  0
    2.6480   -5.8160   36.7828 H   0  0  0  0  0  0  0  0  0  0  0  0
    4.4318   -7.1761   37.4351 H   0  0  0  0  0  0  0  0  0  0  0  0
    5.4018   -8.8866   38.9122 H   0  0  0  0  0  0  0  0  0  0  0  0
    3.9565  -10.1521   40.4838 H   0  0  0  0  0  0  0  0  0  0  0  0
    1.5222   -9.7139   40.5482 H   0  0  0  0  0  0  0  0  0  0  0  0
    0.5197   -8.0319   39.0899 H   0  0  0  0  0  0  0  0  0  0  0  0
   -1.5222   -8.1539   34.3328 H   0  0  0  0  0  0  0  0  0  0  0  0
   -0.1594   -5.6060   29.8369 H   0  0  0  0  0  0  0  0  0  0  0  0
  1  2  1  0
  2  3  1  0
  3  4  2  0
  4  5  1  0
  5  6  1  0
  6  7  2  0
  6  8  2  0
  6  9  1  0
  9 10  1  0
 10 11  1  0
 11 12  1  0
 12 13  2  0
 13 14  1  0
 14 15  1  0
 15 16  1  0
 16 17  1  0
 17 18  1  0
 18 19  1  0
 19 20  2  0
 20 21  1  0
 21 22  2  0
 22 23  1  0
 23 24  2  0
 18 25  1  0
 25 26  2  0
 25 27  2  0
 13 28  1  0
 28 29  1  0
 29 30  2  0
 30 31  1  0
 31 32  2  0
 32 33  1  0
  5 34  2  0
 34  2  1  0
 33 11  2  0
 25 14  1  0
 32 28  1  0
 24 19  1  0
  1 35  1  0
  1 36  1  0
  1 37  1  0
  3 38  1  0
  4 39  1  0
  9 40  1  0
 10 41  1  0
 10 42  1  0
 12 43  1  0
 15 44  1  0
 15 45  1  0
 16 46  1  0
 16 47  1  0
 17 48  1  0
 17 49  1  0
 18 50  1  0
 20 51  1  0
 21 52  1  0
 22 53  1  0
 23 54  1  0
 24 55  1  0
 29 56  1  0
 33 57  1  0
M  END
>  <Energy>  (755) 
72.417833574621113

>  <compound_id>  (755) 
4343

>  <target_id>  (755) 
1

>  <reference_id>  (755) 
152

>  <inspiration_ids>  (755) 
[152, 142]

>  <energy_score>  (755) 
-74.86105059886422

>  <distance_score>  (755) 
0.7754305946420164

>  <path>  (755) 
/opt/xchem-fragalysis-2/maxwin/BulkDock/SCRATCH/505735/C4343-P152/C4343-P152.minimised.mol

>  <scratch_subdir>  (755) 
/opt/xchem-fragalysis-2/maxwin/BulkDock/SCRATCH/505735/C4343-P152

>  <fragmenstein_runtime>  (755) 
6.569727420806885

>  <fragmenstein_outcome>  (755) 
acceptable

>  <fragmenstein_mode>  (755) 
expansion

>  <fragmenstein_error>  (755) 


$$$$
C4343-P142
     RDKit          3D

 57 61  0  0  0  0  0  0  0  0999 V2000
   -1.6100   -0.6739   27.8167 C   0  0  0  0  0  0  0  0  0  0  0  0
   -0.3501   -0.3000   28.4043 N   0  0  0  0  0  0  0  0  0  0  0  0
    0.1391    0.9623   28.5591 C   0  0  0  0  0  0  0  0  0  0  0  0
    1.2640    0.8394   29.3421 C   0  0  0  0  0  0  0  0  0  0  0  0
    1.3675   -0.5459   29.6186 C   0  0  0  0  0  0  0  0  0  0  0  0
    2.5062   -1.2911   30.7239 S   0  0  0  0  0  0  0  0  0  0  0  0
    2.1752   -0.7287   32.0183 O   0  0  0  0  0  0  0  0  0  0  0  0
    3.8145   -1.1189   30.1354 O   0  0  0  0  0  0  0  0  0  0  0  0
    2.2145   -2.9693   30.8662 N   0  0  0  0  0  0  0  0  0  0  0  0
    0.7852   -3.2866   30.9232 C   0  0  0  0  0  0  0  0  0  0  0  0
    0.5624   -4.6169   31.5543 C   0  0  0  0  0  0  0  0  0  0  0  0
    0.7232   -4.6950   32.9961 C   0  0  0  0  0  0  0  0  0  0  0  0
    0.2002   -5.7404   33.6578 C   0  0  0  0  0  0  0  0  0  0  0  0
    0.4078   -5.6270   35.0633 N   0  0  0  0  0  0  0  0  0  0  0  0
   -0.4572   -4.7091   35.8449 C   0  0  0  0  0  0  0  0  0  0  0  0
    0.3568   -4.1310   37.0013 C   0  0  0  0  0  0  0  0  0  0  0  0
    0.8733   -5.2114   37.9566 C   0  0  0  0  0  0  0  0  0  0  0  0
    1.7888   -6.2278   37.2532 C   0  0  0  0  0  0  0  0  0  0  0  0
    2.3568   -7.2896   38.1735 C   0  0  0  0  0  0  0  0  0  0  0  0
    3.7254   -7.6011   38.1132 C   0  0  0  0  0  0  0  0  0  0  0  0
    4.2819   -8.5518   38.9723 C   0  0  0  0  0  0  0  0  0  0  0  0
    3.4820   -9.2021   39.9074 C   0  0  0  0  0  0  0  0  0  0  0  0
    2.1233   -8.9108   39.9740 C   0  0  0  0  0  0  0  0  0  0  0  0
    1.5618   -7.9719   39.1063 C   0  0  0  0  0  0  0  0  0  0  0  0
    0.9120   -7.0269   35.8914 S   0  0  0  0  0  0  0  0  0  0  0  0
   -0.3002   -7.6415   36.3801 O   0  0  0  0  0  0  0  0  0  0  0  0
    1.8526   -7.7155   35.0243 O   0  0  0  0  0  0  0  0  0  0  0  0
   -0.4506   -6.7441   32.9308 N   0  0  0  0  0  0  0  0  0  0  0  0
   -1.2137   -7.8149   33.2825 C   0  0  0  0  0  0  0  0  0  0  0  0
   -1.6494   -8.4428   32.2091 N   0  0  0  0  0  0  0  0  0  0  0  0
   -1.1992   -7.7755   31.1066 N   0  0  0  0  0  0  0  0  0  0  0  0
   -0.5076   -6.7471   31.5397 C   0  0  0  0  0  0  0  0  0  0  0  0
    0.0351   -5.6388   30.8521 C   0  0  0  0  0  0  0  0  0  0  0  0
    0.3704   -1.2331   29.0372 N   0  0  0  0  0  0  0  0  0  0  0  0
   -2.3551   -0.5225   28.5931 H   0  0  0  0  0  0  0  0  0  0  0  0
   -1.5883   -1.7286   27.5482 H   0  0  0  0  0  0  0  0  0  0  0  0
   -1.8118   -0.0423   26.9500 H   0  0  0  0  0  0  0  0  0  0  0  0
   -0.3557    1.8246   28.1310 H   0  0  0  0  0  0  0  0  0  0  0  0
    1.9041    1.6342   29.6996 H   0  0  0  0  0  0  0  0  0  0  0  0
    2.7544   -3.3006   31.6624 H   0  0  0  0  0  0  0  0  0  0  0  0
    0.2178   -2.5347   31.4843 H   0  0  0  0  0  0  0  0  0  0  0  0
    0.3960   -3.3396   29.9039 H   0  0  0  0  0  0  0  0  0  0  0  0
    1.2336   -3.8833   33.5076 H   0  0  0  0  0  0  0  0  0  0  0  0
   -1.3480   -5.2353   36.2052 H   0  0  0  0  0  0  0  0  0  0  0  0
   -0.8076   -3.8822   35.2167 H   0  0  0  0  0  0  0  0  0  0  0  0
    1.2064   -3.5595   36.6072 H   0  0  0  0  0  0  0  0  0  0  0  0
   -0.2694   -3.4279   37.5627 H   0  0  0  0  0  0  0  0  0  0  0  0
    0.0072   -5.7075   38.4112 H   0  0  0  0  0  0  0  0  0  0  0  0
    1.4229   -4.7287   38.7743 H   0  0  0  0  0  0  0  0  0  0  0  0
    2.6192   -5.6836   36.7839 H   0  0  0  0  0  0  0  0  0  0  0  0
    4.3767   -7.1054   37.3959 H   0  0  0  0  0  0  0  0  0  0  0  0
    5.3429   -8.7814   38.9133 H   0  0  0  0  0  0  0  0  0  0  0  0
    3.9156   -9.9381   40.5786 H   0  0  0  0  0  0  0  0  0  0  0  0
    1.4875   -9.4275   40.6879 H   0  0  0  0  0  0  0  0  0  0  0  0
    0.4880   -7.8044   39.1620 H   0  0  0  0  0  0  0  0  0  0  0  0
   -1.4366   -8.0887   34.3019 H   0  0  0  0  0  0  0  0  0  0  0  0
   -0.1370   -5.5657   29.7845 H   0  0  0  0  0  0  0  0  0  0  0  0
  1  2  1  0
  2  3  1  0
  3  4  2  0
  4  5  1  0
  5  6  1  0
  6  7  2  0
  6  8  2  0
  6  9  1  0
  9 10  1  0
 10 11  1  0
 11 12  1  0
 12 13  2  0
 13 14  1  0
 14 15  1  0
 15 16  1  0
 16 17  1  0
 17 18  1  0
 18 19  1  0
 19 20  2  0
 20 21  1  0
 21 22  2  0
 22 23  1  0
 23 24  2  0
 18 25  1  0
 25 26  2  0
 25 27  2  0
 13 28  1  0
 28 29  1  0
 29 30  2  0
 30 31  1  0
 31 32  2  0
 32 33  1  0
  5 34  2  0
 34  2  1  0
 33 11  2  0
 25 14  1  0
 32 28  1  0
 24 19  1  0
  1 35  1  0
  1 36  1  0
  1 37  1  0
  3 38  1  0
  4 39  1  0
  9 40  1  0
 10 41  1  0
 10 42  1  0
 12 43  1  0
 15 44  1  0
 15 45  1  0
 16 46  1  0
 16 47  1  0
 17 48  1  0
 17 49  1  0
 18 50  1  0
 20 51  1  0
 21 52  1  0
 22 53  1  0
 23 54  1  0
 24 55  1  0
 29 56  1  0
 33 57  1  0
M  END
>  <Energy>  (756) 
71.695499891421463

>  <compound_id>  (756) 
4343

>  <target_id>  (756) 
1

>  <reference_id>  (756) 
142

>  <inspiration_ids>  (756) 
[152, 142]

>  <energy_score>  (756) 
-75.58338428206503

>  <distance_score>  (756) 
0.8004916216093455

>  <path>  (756) 
/opt/xchem-fragalysis-2/maxwin/BulkDock/SCRATCH/505735/C4343-P142/C4343-P142.minimised.mol

>  <scratch_subdir>  (756) 
/opt/xchem-fragalysis-2/maxwin/BulkDock/SCRATCH/505735/C4343-P142

>  <fragmenstein_runtime>  (756) 
6.597418785095215

>  <fragmenstein_outcome>  (756) 
acceptable

>  <fragmenstein_mode>  (756) 
expansion

>  <fragmenstein_error>  (756) 


$$$$
C4345-P152
     RDKit          3D

 61 65  0  0  0  0  0  0  0  0999 V2000
   -2.2631    3.1620   25.4328 N   0  0  0  0  0  0  0  0  0  0  0  0
   -1.6871    2.5035   26.5143 C   0  0  0  0  0  0  0  0  0  0  0  0
   -1.8657    1.1381   26.6776 C   0  0  0  0  0  0  0  0  0  0  0  0
   -1.2044    0.4648   27.7038 C   0  0  0  0  0  0  0  0  0  0  0  0
   -0.3932    1.1952   28.5555 C   0  0  0  0  0  0  0  0  0  0  0  0
    0.4542    0.4330   29.8977 S   0  0  0  0  0  0  0  0  0  0  0  0
    1.6309    1.2258   30.1812 O   0  0  0  0  0  0  0  0  0  0  0  0
   -0.5110    0.1168   30.9280 O   0  0  0  0  0  0  0  0  0  0  0  0
    1.0704   -1.0100   29.2764 N   0  0  0  0  0  0  0  0  0  0  0  0
    0.4646   -2.3080   29.6456 C   0  0  0  0  0  0  0  0  0  0  0  0
    1.1792   -2.9312   30.8680 C   0  0  0  0  0  0  0  0  0  0  0  0
    0.6580   -4.2709   31.4035 C   0  0  0  0  0  0  0  0  0  0  0  0
    0.7589   -4.4804   32.8579 C   0  0  0  0  0  0  0  0  0  0  0  0
    0.2171   -5.5702   33.4509 C   0  0  0  0  0  0  0  0  0  0  0  0
    0.3790   -5.5682   34.8787 N   0  0  0  0  0  0  0  0  0  0  0  0
   -0.2687   -4.5182   35.6958 C   0  0  0  0  0  0  0  0  0  0  0  0
    0.7718   -3.9387   36.6604 C   0  0  0  0  0  0  0  0  0  0  0  0
    1.8253   -4.9489   37.1509 C   0  0  0  0  0  0  0  0  0  0  0  0
    1.2405   -6.3508   37.3170 C   0  0  0  0  0  0  0  0  0  0  0  0
    2.0992   -7.3574   38.0457 C   0  0  0  0  0  0  0  0  0  0  0  0
    3.4801   -7.4767   37.8379 C   0  0  0  0  0  0  0  0  0  0  0  0
    4.2335   -8.3941   38.5778 C   0  0  0  0  0  0  0  0  0  0  0  0
    3.6200   -9.2017   39.5326 C   0  0  0  0  0  0  0  0  0  0  0  0
    2.2501   -9.1002   39.7438 C   0  0  0  0  0  0  0  0  0  0  0  0
    1.4950   -8.1918   39.0021 C   0  0  0  0  0  0  0  0  0  0  0  0
    0.7015   -7.0190   35.7130 S   0  0  0  0  0  0  0  0  0  0  0  0
   -0.5696   -7.6717   35.9370 O   0  0  0  0  0  0  0  0  0  0  0  0
    1.7672   -7.6844   34.9850 O   0  0  0  0  0  0  0  0  0  0  0  0
   -0.4126   -6.5273   32.6404 N   0  0  0  0  0  0  0  0  0  0  0  0
   -1.1456   -7.6581   32.8837 C   0  0  0  0  0  0  0  0  0  0  0  0
   -1.5114   -8.2280   31.7549 N   0  0  0  0  0  0  0  0  0  0  0  0
   -1.0563   -7.4504   30.7256 N   0  0  0  0  0  0  0  0  0  0  0  0
   -0.4438   -6.4115   31.2513 C   0  0  0  0  0  0  0  0  0  0  0  0
    0.0958   -5.2381   30.6477 C   0  0  0  0  0  0  0  0  0  0  0  0
   -0.2585    2.5569   28.3271 C   0  0  0  0  0  0  0  0  0  0  0  0
   -0.8776    3.2179   27.3108 N   0  0  0  0  0  0  0  0  0  0  0  0
   -2.0796    4.1568   25.5513 H   0  0  0  0  0  0  0  0  0  0  0  0
   -3.2607    2.9830   25.3663 H   0  0  0  0  0  0  0  0  0  0  0  0
   -2.4919    0.5856   25.9903 H   0  0  0  0  0  0  0  0  0  0  0  0
   -1.3374   -0.6079   27.8117 H   0  0  0  0  0  0  0  0  0  0  0  0
    2.0854   -0.9776   29.1803 H   0  0  0  0  0  0  0  0  0  0  0  0
   -0.6111   -2.2046   29.8224 H   0  0  0  0  0  0  0  0  0  0  0  0
    0.5775   -2.9685   28.7787 H   0  0  0  0  0  0  0  0  0  0  0  0
    2.2469   -3.0508   30.6406 H   0  0  0  0  0  0  0  0  0  0  0  0
    1.1287   -2.1897   31.6770 H   0  0  0  0  0  0  0  0  0  0  0  0
    1.2764   -3.7180   33.4343 H   0  0  0  0  0  0  0  0  0  0  0  0
   -0.6880   -3.7137   35.0823 H   0  0  0  0  0  0  0  0  0  0  0  0
   -1.1108   -4.9506   36.2493 H   0  0  0  0  0  0  0  0  0  0  0  0
    1.2977   -3.1071   36.1750 H   0  0  0  0  0  0  0  0  0  0  0  0
    0.2458   -3.5063   37.5202 H   0  0  0  0  0  0  0  0  0  0  0  0
    2.6533   -4.9700   36.4304 H   0  0  0  0  0  0  0  0  0  0  0  0
    2.2467   -4.5875   38.0969 H   0  0  0  0  0  0  0  0  0  0  0  0
    0.3109   -6.2315   37.8927 H   0  0  0  0  0  0  0  0  0  0  0  0
    3.9907   -6.8630   37.0997 H   0  0  0  0  0  0  0  0  0  0  0  0
    5.3039   -8.4795   38.4075 H   0  0  0  0  0  0  0  0  0  0  0  0
    4.2043   -9.9185   40.1032 H   0  0  0  0  0  0  0  0  0  0  0  0
    1.7579   -9.7509   40.4648 H   0  0  0  0  0  0  0  0  0  0  0  0
    0.4213   -8.1574   39.1817 H   0  0  0  0  0  0  0  0  0  0  0  0
   -1.4061   -8.0299   33.8602 H   0  0  0  0  0  0  0  0  0  0  0  0
   -0.0120   -5.1359   29.5743 H   0  0  0  0  0  0  0  0  0  0  0  0
    0.3587    3.1873   28.9631 H   0  0  0  0  0  0  0  0  0  0  0  0
  1  2  1  0
  2  3  2  0
  3  4  1  0
  4  5  2  0
  5  6  1  0
  6  7  2  0
  6  8  2  0
  6  9  1  0
  9 10  1  0
 10 11  1  0
 11 12  1  0
 12 13  1  0
 13 14  2  0
 14 15  1  0
 15 16  1  0
 16 17  1  0
 17 18  1  0
 18 19  1  0
 19 20  1  0
 20 21  2  0
 21 22  1  0
 22 23  2  0
 23 24  1  0
 24 25  2  0
 19 26  1  0
 26 27  2  0
 26 28  2  0
 14 29  1  0
 29 30  1  0
 30 31  2  0
 31 32  1  0
 32 33  2  0
 33 34  1  0
  5 35  1  0
 35 36  2  0
 36  2  1  0
 34 12  2  0
 26 15  1  0
 33 29  1  0
 25 20  1  0
  1 37  1  0
  1 38  1  0
  3 39  1  0
  4 40  1  0
  9 41  1  0
 10 42  1  0
 10 43  1  0
 11 44  1  0
 11 45  1  0
 13 46  1  0
 16 47  1  0
 16 48  1  0
 17 49  1  0
 17 50  1  0
 18 51  1  0
 18 52  1  0
 19 53  1  0
 21 54  1  0
 22 55  1  0
 23 56  1  0
 24 57  1  0
 25 58  1  0
 30 59  1  0
 34 60  1  0
 35 61  1  0
M  END
>  <Energy>  (757) 
-22.963578518424612

>  <compound_id>  (757) 
4345

>  <target_id>  (757) 
1

>  <reference_id>  (757) 
152

>  <inspiration_ids>  (757) 
[152, 147]

>  <energy_score>  (757) 
-68.92264616982732

>  <distance_score>  (757) 
0.8381950299201095

>  <path>  (757) 
/opt/xchem-fragalysis-2/maxwin/BulkDock/SCRATCH/505735/C4345-P152/C4345-P152.minimised.mol

>  <scratch_subdir>  (757) 
/opt/xchem-fragalysis-2/maxwin/BulkDock/SCRATCH/505735/C4345-P152

>  <fragmenstein_runtime>  (757) 
25.638330459594727

>  <fragmenstein_outcome>  (757) 
acceptable

>  <fragmenstein_mode>  (757) 
expansion

>  <fragmenstein_error>  (757) 


$$$$
C4345-P147
     RDKit          3D

 61 65  0  0  0  0  0  0  0  0999 V2000
   -2.2712    2.8546   25.3504 N   0  0  0  0  0  0  0  0  0  0  0  0
   -1.7107    2.3394   26.5148 C   0  0  0  0  0  0  0  0  0  0  0  0
   -1.8644    0.9976   26.8366 C   0  0  0  0  0  0  0  0  0  0  0  0
   -1.2055    0.4634   27.9417 C   0  0  0  0  0  0  0  0  0  0  0  0
   -0.4104    1.3039   28.7004 C   0  0  0  0  0  0  0  0  0  0  0  0
    0.3928    0.7418   30.1578 S   0  0  0  0  0  0  0  0  0  0  0  0
    1.6018    1.5184   30.3270 O   0  0  0  0  0  0  0  0  0  0  0  0
   -0.6022    0.6460   31.2041 O   0  0  0  0  0  0  0  0  0  0  0  0
    0.9667   -0.8301   29.8081 N   0  0  0  0  0  0  0  0  0  0  0  0
    0.4067   -1.9356   30.6321 C   0  0  0  0  0  0  0  0  0  0  0  0
    1.2892   -3.1991   30.5539 C   0  0  0  0  0  0  0  0  0  0  0  0
    0.7032   -4.4232   31.2590 C   0  0  0  0  0  0  0  0  0  0  0  0
    0.7886   -4.5374   32.7233 C   0  0  0  0  0  0  0  0  0  0  0  0
    0.2380   -5.5955   33.3691 C   0  0  0  0  0  0  0  0  0  0  0  0
    0.3980   -5.5380   34.7992 N   0  0  0  0  0  0  0  0  0  0  0  0
   -0.2716   -4.4752   35.5803 C   0  0  0  0  0  0  0  0  0  0  0  0
    0.7486   -3.8662   36.5501 C   0  0  0  0  0  0  0  0  0  0  0  0
    1.8116   -4.8509   37.0750 C   0  0  0  0  0  0  0  0  0  0  0  0
    1.2439   -6.2545   37.2748 C   0  0  0  0  0  0  0  0  0  0  0  0
    2.1099   -7.2391   38.0267 C   0  0  0  0  0  0  0  0  0  0  0  0
    3.4922   -7.3532   37.8249 C   0  0  0  0  0  0  0  0  0  0  0  0
    4.2481   -8.2630   38.5726 C   0  0  0  0  0  0  0  0  0  0  0  0
    3.6365   -9.0682   39.5305 C   0  0  0  0  0  0  0  0  0  0  0  0
    2.2663   -8.9698   39.7387 C   0  0  0  0  0  0  0  0  0  0  0  0
    1.5092   -8.0682   38.9899 C   0  0  0  0  0  0  0  0  0  0  0  0
    0.7180   -6.9666   35.6855 S   0  0  0  0  0  0  0  0  0  0  0  0
   -0.5571   -7.6105   35.9221 O   0  0  0  0  0  0  0  0  0  0  0  0
    1.7927   -7.6490   34.9891 O   0  0  0  0  0  0  0  0  0  0  0  0
   -0.4055   -6.5843   32.6041 N   0  0  0  0  0  0  0  0  0  0  0  0
   -1.1574   -7.6871   32.9040 C   0  0  0  0  0  0  0  0  0  0  0  0
   -1.5573   -8.2989   31.8091 N   0  0  0  0  0  0  0  0  0  0  0  0
   -1.1049   -7.5774   30.7407 N   0  0  0  0  0  0  0  0  0  0  0  0
   -0.4478   -6.5392   31.2127 C   0  0  0  0  0  0  0  0  0  0  0  0
    0.1312   -5.4222   30.5546 C   0  0  0  0  0  0  0  0  0  0  0  0
   -0.2909    2.6299   28.3114 C   0  0  0  0  0  0  0  0  0  0  0  0
   -0.9155    3.1551   27.2243 N   0  0  0  0  0  0  0  0  0  0  0  0
   -2.1193    3.8626   25.3668 H   0  0  0  0  0  0  0  0  0  0  0  0
   -3.2624    2.6426   25.2658 H   0  0  0  0  0  0  0  0  0  0  0  0
   -2.4524    0.3455   26.2038 H   0  0  0  0  0  0  0  0  0  0  0  0
   -1.3241   -0.5894   28.1787 H   0  0  0  0  0  0  0  0  0  0  0  0
    1.9880   -0.7758   29.8070 H   0  0  0  0  0  0  0  0  0  0  0  0
    0.3583   -1.6273   31.6824 H   0  0  0  0  0  0  0  0  0  0  0  0
   -0.6080   -2.1543   30.2819 H   0  0  0  0  0  0  0  0  0  0  0  0
    1.4650   -3.4361   29.4956 H   0  0  0  0  0  0  0  0  0  0  0  0
    2.2814   -2.9826   30.9713 H   0  0  0  0  0  0  0  0  0  0  0  0
    1.3142   -3.7502   33.2568 H   0  0  0  0  0  0  0  0  0  0  0  0
   -0.6865   -3.6906   34.9382 H   0  0  0  0  0  0  0  0  0  0  0  0
   -1.1218   -4.9003   36.1276 H   0  0  0  0  0  0  0  0  0  0  0  0
    1.2695   -3.0361   36.0566 H   0  0  0  0  0  0  0  0  0  0  0  0
    0.2048   -3.4255   37.3944 H   0  0  0  0  0  0  0  0  0  0  0  0
    2.6450   -4.8804   36.3611 H   0  0  0  0  0  0  0  0  0  0  0  0
    2.2218   -4.4594   38.0139 H   0  0  0  0  0  0  0  0  0  0  0  0
    0.3115   -6.1316   37.8451 H   0  0  0  0  0  0  0  0  0  0  0  0
    4.0017   -6.7447   37.0817 H   0  0  0  0  0  0  0  0  0  0  0  0
    5.3189   -8.3458   38.4035 H   0  0  0  0  0  0  0  0  0  0  0  0
    4.2227   -9.7807   40.1040 H   0  0  0  0  0  0  0  0  0  0  0  0
    1.7740   -9.6198   40.4598 H   0  0  0  0  0  0  0  0  0  0  0  0
    0.4347   -8.0406   39.1646 H   0  0  0  0  0  0  0  0  0  0  0  0
   -1.4119   -8.0038   33.8993 H   0  0  0  0  0  0  0  0  0  0  0  0
    0.0460   -5.3710   29.4756 H   0  0  0  0  0  0  0  0  0  0  0  0
    0.3089    3.3420   28.8732 H   0  0  0  0  0  0  0  0  0  0  0  0
  1  2  1  0
  2  3  2  0
  3  4  1  0
  4  5  2  0
  5  6  1  0
  6  7  2  0
  6  8  2  0
  6  9  1  0
  9 10  1  0
 10 11  1  0
 11 12  1  0
 12 13  1  0
 13 14  2  0
 14 15  1  0
 15 16  1  0
 16 17  1  0
 17 18  1  0
 18 19  1  0
 19 20  1  0
 20 21  2  0
 21 22  1  0
 22 23  2  0
 23 24  1  0
 24 25  2  0
 19 26  1  0
 26 27  2  0
 26 28  2  0
 14 29  1  0
 29 30  1  0
 30 31  2  0
 31 32  1  0
 32 33  2  0
 33 34  1  0
  5 35  1  0
 35 36  2  0
 36  2  1  0
 34 12  2  0
 26 15  1  0
 33 29  1  0
 25 20  1  0
  1 37  1  0
  1 38  1  0
  3 39  1  0
  4 40  1  0
  9 41  1  0
 10 42  1  0
 10 43  1  0
 11 44  1  0
 11 45  1  0
 13 46  1  0
 16 47  1  0
 16 48  1  0
 17 49  1  0
 17 50  1  0
 18 51  1  0
 18 52  1  0
 19 53  1  0
 21 54  1  0
 22 55  1  0
 23 56  1  0
 24 57  1  0
 25 58  1  0
 30 59  1  0
 34 60  1  0
 35 61  1  0
M  END
>  <Energy>  (758) 
-23.187324129653035

>  <compound_id>  (758) 
4345

>  <target_id>  (758) 
1

>  <reference_id>  (758) 
147

>  <inspiration_ids>  (758) 
[152, 147]

>  <energy_score>  (758) 
-69.14639178105865

>  <distance_score>  (758) 
0.8659695723994352

>  <path>  (758) 
/opt/xchem-fragalysis-2/maxwin/BulkDock/SCRATCH/505735/C4345-P147/C4345-P147.minimised.mol

>  <scratch_subdir>  (758) 
/opt/xchem-fragalysis-2/maxwin/BulkDock/SCRATCH/505735/C4345-P147

>  <fragmenstein_runtime>  (758) 
25.739954948425293

>  <fragmenstein_outcome>  (758) 
acceptable

>  <fragmenstein_mode>  (758) 
expansion

>  <fragmenstein_error>  (758) 


$$$$
C4345-P152
     RDKit          2D

  0  0  0  0  0  0  0  0  0  0999 V2000
M  END
>  <compound_id>  (759) 
4345

>  <target_id>  (759) 
1

>  <reference_id>  (759) 
152

>  <inspiration_ids>  (759) 
[152, 150]

>  <energy_score>  (759) 
nan

>  <distance_score>  (759) 
nan

>  <path>  (759) 
/opt/xchem-fragalysis-2/maxwin/BulkDock/SCRATCH/505735/C4345-P152/C4345-P152.minimised.mol

>  <scratch_subdir>  (759) 
/opt/xchem-fragalysis-2/maxwin/BulkDock/SCRATCH/505735/C4345-P152

>  <fragmenstein_runtime>  (759) 
0.4804656505584717

>  <fragmenstein_outcome>  (759) 
too distant

>  <fragmenstein_mode>  (759) 
expansion

>  <fragmenstein_error>  (759) 
DistanceError: hit0+hit1

$$$$
C4323-P152
     RDKit          3D

 61 66  0  0  0  0  0  0  0  0999 V2000
    3.6157   -2.9483   33.0569 N   0  0  0  0  0  0  0  0  0  0  0  0
    3.7135   -4.0174   34.0423 C   0  0  0  0  0  0  0  0  0  0  0  0
    2.4502   -4.1239   34.9266 C   0  0  0  0  0  0  0  0  0  0  0  0
    1.1680   -4.2718   33.9756 C   0  0  0  0  0  0  0  0  0  0  0  0
   -0.2143   -4.1546   34.6334 C   0  0  0  0  0  0  0  0  0  0  0  0
   -0.6781   -5.4210   35.3330 C   0  0  0  0  0  0  0  0  0  0  0  0
   -0.2241   -6.7574   34.6603 C   0  0  0  0  0  0  0  0  0  0  0  0
    0.5735   -7.7312   35.6043 C   0  0  0  0  0  0  0  0  0  0  0  0
   -0.4338   -8.1061   36.6730 C   0  0  0  0  0  0  0  0  0  0  0  0
   -1.5765   -8.2424   35.7713 C   0  0  0  0  0  0  0  0  0  0  0  0
   -2.7209   -8.9505   35.7386 N   0  0  0  0  0  0  0  0  0  0  0  0
   -3.3426   -8.5944   34.5877 C   0  0  0  0  0  0  0  0  0  0  0  0
   -2.3935   -8.0512   33.7360 C   0  0  0  0  0  0  0  0  0  0  0  0
   -1.4337   -7.5837   34.5962 C   0  0  0  0  0  0  0  0  0  0  0  0
    0.3419   -6.5312   33.3163 C   0  0  0  0  0  0  0  0  0  0  0  0
    0.0619   -7.1520   32.1857 N   0  0  0  0  0  0  0  0  0  0  0  0
    0.5590   -6.4020   31.1553 N   0  0  0  0  0  0  0  0  0  0  0  0
    1.1448   -5.3504   31.6819 C   0  0  0  0  0  0  0  0  0  0  0  0
    1.0734   -5.4039   33.0453 N   0  0  0  0  0  0  0  0  0  0  0  0
    2.2667   -2.9106   35.8774 C   0  0  0  0  0  0  0  0  0  0  0  0
    3.3654   -2.7425   36.9377 C   0  0  0  0  0  0  0  0  0  0  0  0
    3.4769   -3.9003   37.9445 C   0  0  0  0  0  0  0  0  0  0  0  0
    3.8551   -5.2256   37.2734 C   0  0  0  0  0  0  0  0  0  0  0  0
    3.7972   -6.4726   38.1828 C   0  0  0  0  0  0  0  0  0  0  0  0
    4.7322   -7.5016   37.9906 C   0  0  0  0  0  0  0  0  0  0  0  0
    4.6284   -8.7139   38.6845 C   0  0  0  0  0  0  0  0  0  0  0  0
    3.5813   -8.9323   39.5756 C   0  0  0  0  0  0  0  0  0  0  0  0
    2.6435   -7.9303   39.7878 C   0  0  0  0  0  0  0  0  0  0  0  0
    2.7576   -6.7102   39.1102 C   0  0  0  0  0  0  0  0  0  0  0  0
    2.6616   -5.5467   35.9943 S   0  0  0  0  0  0  0  0  0  0  0  0
    1.4445   -5.6160   36.7746 O   0  0  0  0  0  0  0  0  0  0  0  0
    3.1327   -6.6390   35.1596 O   0  0  0  0  0  0  0  0  0  0  0  0
    3.7098   -2.0322   33.5003 H   0  0  0  0  0  0  0  0  0  0  0  0
    4.4059   -3.0057   32.4085 H   0  0  0  0  0  0  0  0  0  0  0  0
    3.8683   -4.9485   33.4880 H   0  0  0  0  0  0  0  0  0  0  0  0
    4.6183   -3.8750   34.6418 H   0  0  0  0  0  0  0  0  0  0  0  0
    1.1967   -3.3918   33.3158 H   0  0  0  0  0  0  0  0  0  0  0  0
   -0.9262   -3.9354   33.8253 H   0  0  0  0  0  0  0  0  0  0  0  0
   -0.3051   -3.2931   35.2993 H   0  0  0  0  0  0  0  0  0  0  0  0
   -0.4966   -5.3511   36.4033 H   0  0  0  0  0  0  0  0  0  0  0  0
   -1.7550   -5.4012   35.4133 H   0  0  0  0  0  0  0  0  0  0  0  0
    0.9076   -8.5628   35.0158 H   0  0  0  0  0  0  0  0  0  0  0  0
    1.4778   -7.5534   36.1409 H   0  0  0  0  0  0  0  0  0  0  0  0
   -0.1302   -8.9624   37.2542 H   0  0  0  0  0  0  0  0  0  0  0  0
   -0.5601   -7.2806   37.3813 H   0  0  0  0  0  0  0  0  0  0  0  0
   -3.0041   -9.7124   36.3425 H   0  0  0  0  0  0  0  0  0  0  0  0
   -4.3637   -8.8858   34.4555 H   0  0  0  0  0  0  0  0  0  0  0  0
   -2.4775   -7.8648   32.6727 H   0  0  0  0  0  0  0  0  0  0  0  0
    1.5884   -4.5277   31.1382 H   0  0  0  0  0  0  0  0  0  0  0  0
    1.3311   -2.9897   36.4396 H   0  0  0  0  0  0  0  0  0  0  0  0
    2.1949   -1.9861   35.2922 H   0  0  0  0  0  0  0  0  0  0  0  0
    4.3359   -2.5789   36.4565 H   0  0  0  0  0  0  0  0  0  0  0  0
    3.1527   -1.8260   37.5027 H   0  0  0  0  0  0  0  0  0  0  0  0
    2.5280   -3.9672   38.4885 H   0  0  0  0  0  0  0  0  0  0  0  0
    4.2383   -3.6508   38.6939 H   0  0  0  0  0  0  0  0  0  0  0  0
    4.8395   -5.1457   36.7998 H   0  0  0  0  0  0  0  0  0  0  0  0
    5.5400   -7.3889   37.2700 H   0  0  0  0  0  0  0  0  0  0  0  0
    5.3583   -9.5009   38.5098 H   0  0  0  0  0  0  0  0  0  0  0  0
    3.4871   -9.8833   40.0940 H   0  0  0  0  0  0  0  0  0  0  0  0
    1.8128   -8.1010   40.4686 H   0  0  0  0  0  0  0  0  0  0  0  0
    1.9798   -5.9690   39.2829 H   0  0  0  0  0  0  0  0  0  0  0  0
  1  2  1  0
  2  3  1  0
  3  4  1  0
  4  5  1  0
  5  6  1  0
  6  7  1  0
  7  8  1  0
  8  9  1  0
  9 10  1  0
 10 11  1  0
 11 12  1  0
 12 13  2  0
 13 14  1  0
  7 15  1  0
 15 16  2  0
 16 17  1  0
 17 18  2  0
 18 19  1  0
  3 20  1  0
 20 21  1  0
 21 22  1  0
 22 23  1  0
 23 24  1  0
 24 25  2  0
 25 26  1  0
 26 27  2  0
 27 28  1  0
 28 29  2  0
 23 30  1  0
 30 31  2  0
 30 32  2  0
 30  3  1  0
 19  4  1  0
 29 24  1  0
 14  7  1  0
 19 15  1  0
 14 10  2  0
  1 33  1  0
  1 34  1  0
  2 35  1  0
  2 36  1  0
  4 37  1  0
  5 38  1  0
  5 39  1  0
  6 40  1  0
  6 41  1  0
  8 42  1  0
  8 43  1  0
  9 44  1  0
  9 45  1  0
 11 46  1  0
 12 47  1  0
 13 48  1  0
 18 49  1  0
 20 50  1  0
 20 51  1  0
 21 52  1  0
 21 53  1  0
 22 54  1  0
 22 55  1  0
 23 56  1  0
 25 57  1  0
 26 58  1  0
 27 59  1  0
 28 60  1  0
 29 61  1  0
M  END
>  <Energy>  (760) 
161.01714201953544

>  <compound_id>  (760) 
4323

>  <target_id>  (760) 
1

>  <reference_id>  (760) 
152

>  <inspiration_ids>  (760) 
[152, 163]

>  <energy_score>  (760) 
-8.41803019954051

>  <distance_score>  (760) 
2.222103745049964

>  <path>  (760) 
/opt/xchem-fragalysis-2/maxwin/BulkDock/SCRATCH/505735/C4323-P152/C4323-P152.minimised.mol

>  <scratch_subdir>  (760) 
/opt/xchem-fragalysis-2/maxwin/BulkDock/SCRATCH/505735/C4323-P152

>  <fragmenstein_runtime>  (760) 
4.15433669090271

>  <fragmenstein_outcome>  (760) 
too moved

>  <fragmenstein_mode>  (760) 
expansion

>  <fragmenstein_error>  (760) 


$$$$
C4323-P163
     RDKit          3D

 61 66  0  0  0  0  0  0  0  0999 V2000
    3.8853   -1.8189   36.1754 N   0  0  0  0  0  0  0  0  0  0  0  0
    3.5127   -3.1325   36.6930 C   0  0  0  0  0  0  0  0  0  0  0  0
    1.9919   -3.4853   36.6411 C   0  0  0  0  0  0  0  0  0  0  0  0
    1.4638   -3.4136   35.1433 C   0  0  0  0  0  0  0  0  0  0  0  0
   -0.0803   -3.3410   34.9492 C   0  0  0  0  0  0  0  0  0  0  0  0
   -0.5616   -3.9923   33.6350 C   0  0  0  0  0  0  0  0  0  0  0  0
   -0.0868   -5.4513   33.5750 C   0  0  0  0  0  0  0  0  0  0  0  0
   -0.6172   -6.3133   34.7845 C   0  0  0  0  0  0  0  0  0  0  0  0
   -1.1982   -7.6351   34.2507 C   0  0  0  0  0  0  0  0  0  0  0  0
   -1.1195   -7.4247   32.8085 C   0  0  0  0  0  0  0  0  0  0  0  0
   -1.3060   -8.2391   31.7527 N   0  0  0  0  0  0  0  0  0  0  0  0
   -0.8107   -7.5805   30.6477 C   0  0  0  0  0  0  0  0  0  0  0  0
   -0.3732   -6.3192   31.0220 C   0  0  0  0  0  0  0  0  0  0  0  0
   -0.5501   -6.2521   32.4099 C   0  0  0  0  0  0  0  0  0  0  0  0
    1.4043   -5.3872   33.5868 C   0  0  0  0  0  0  0  0  0  0  0  0
    2.2663   -6.0771   32.8752 N   0  0  0  0  0  0  0  0  0  0  0  0
    3.4652   -5.4244   32.9408 N   0  0  0  0  0  0  0  0  0  0  0  0
    3.3211   -4.3874   33.7227 C   0  0  0  0  0  0  0  0  0  0  0  0
    2.0711   -4.3927   34.2489 N   0  0  0  0  0  0  0  0  0  0  0  0
    1.1848   -2.5542   37.5925 C   0  0  0  0  0  0  0  0  0  0  0  0
    1.6113   -2.6044   39.0726 C   0  0  0  0  0  0  0  0  0  0  0  0
    1.5309   -3.9946   39.7258 C   0  0  0  0  0  0  0  0  0  0  0  0
    2.3673   -5.0504   38.9943 C   0  0  0  0  0  0  0  0  0  0  0  0
    2.3606   -6.4488   39.5856 C   0  0  0  0  0  0  0  0  0  0  0  0
    3.5677   -7.1713   39.6447 C   0  0  0  0  0  0  0  0  0  0  0  0
    3.5944   -8.4908   40.0987 C   0  0  0  0  0  0  0  0  0  0  0  0
    2.4147   -9.1101   40.4959 C   0  0  0  0  0  0  0  0  0  0  0  0
    1.2122   -8.4093   40.4467 C   0  0  0  0  0  0  0  0  0  0  0  0
    1.1827   -7.0872   39.9996 C   0  0  0  0  0  0  0  0  0  0  0  0
    1.7820   -5.1892   37.3003 S   0  0  0  0  0  0  0  0  0  0  0  0
    0.3553   -5.4492   37.3739 O   0  0  0  0  0  0  0  0  0  0  0  0
    2.6635   -6.0753   36.5671 O   0  0  0  0  0  0  0  0  0  0  0  0
    3.7417   -1.7105   35.1747 H   0  0  0  0  0  0  0  0  0  0  0  0
    3.4003   -1.0576   36.6480 H   0  0  0  0  0  0  0  0  0  0  0  0
    4.1128   -3.8921   36.1848 H   0  0  0  0  0  0  0  0  0  0  0  0
    3.8885   -3.1571   37.7171 H   0  0  0  0  0  0  0  0  0  0  0  0
    1.8054   -2.4540   34.7304 H   0  0  0  0  0  0  0  0  0  0  0  0
   -0.3902   -2.2881   34.9583 H   0  0  0  0  0  0  0  0  0  0  0  0
   -0.6099   -3.8014   35.7851 H   0  0  0  0  0  0  0  0  0  0  0  0
   -1.6418   -3.9052   33.5434 H   0  0  0  0  0  0  0  0  0  0  0  0
   -0.1607   -3.4218   32.7843 H   0  0  0  0  0  0  0  0  0  0  0  0
    0.1968   -6.5930   35.4513 H   0  0  0  0  0  0  0  0  0  0  0  0
   -1.3878   -5.7996   35.3660 H   0  0  0  0  0  0  0  0  0  0  0  0
   -0.5333   -8.4241   34.5888 H   0  0  0  0  0  0  0  0  0  0  0  0
   -2.2079   -7.8172   34.6207 H   0  0  0  0  0  0  0  0  0  0  0  0
   -1.6221   -9.2002   31.7916 H   0  0  0  0  0  0  0  0  0  0  0  0
   -0.7544   -8.0917   29.7002 H   0  0  0  0  0  0  0  0  0  0  0  0
    0.1312   -5.6077   30.3806 H   0  0  0  0  0  0  0  0  0  0  0  0
    4.0857   -3.6523   33.9233 H   0  0  0  0  0  0  0  0  0  0  0  0
    0.1186   -2.8048   37.5647 H   0  0  0  0  0  0  0  0  0  0  0  0
    1.2564   -1.5172   37.2428 H   0  0  0  0  0  0  0  0  0  0  0  0
    2.6233   -2.2021   39.1903 H   0  0  0  0  0  0  0  0  0  0  0  0
    0.9589   -1.9261   39.6370 H   0  0  0  0  0  0  0  0  0  0  0  0
    0.4755   -4.2890   39.7730 H   0  0  0  0  0  0  0  0  0  0  0  0
    1.8727   -3.9159   40.7653 H   0  0  0  0  0  0  0  0  0  0  0  0
    3.4074   -4.7159   38.9565 H   0  0  0  0  0  0  0  0  0  0  0  0
    4.5005   -6.7238   39.3072 H   0  0  0  0  0  0  0  0  0  0  0  0
    4.5306   -9.0417   40.1202 H   0  0  0  0  0  0  0  0  0  0  0  0
    2.4165  -10.1483   40.8180 H   0  0  0  0  0  0  0  0  0  0  0  0
    0.2889   -8.9127   40.7243 H   0  0  0  0  0  0  0  0  0  0  0  0
    0.2184   -6.5876   39.9369 H   0  0  0  0  0  0  0  0  0  0  0  0
  1  2  1  0
  2  3  1  0
  3  4  1  0
  4  5  1  0
  5  6  1  0
  6  7  1  0
  7  8  1  0
  8  9  1  0
  9 10  1  0
 10 11  1  0
 11 12  1  0
 12 13  2  0
 13 14  1  0
  7 15  1  0
 15 16  2  0
 16 17  1  0
 17 18  2  0
 18 19  1  0
  3 20  1  0
 20 21  1  0
 21 22  1  0
 22 23  1  0
 23 24  1  0
 24 25  2  0
 25 26  1  0
 26 27  2  0
 27 28  1  0
 28 29  2  0
 23 30  1  0
 30 31  2  0
 30 32  2  0
 30  3  1  0
 19  4  1  0
 29 24  1  0
 14  7  1  0
 19 15  1  0
 14 10  2  0
  1 33  1  0
  1 34  1  0
  2 35  1  0
  2 36  1  0
  4 37  1  0
  5 38  1  0
  5 39  1  0
  6 40  1  0
  6 41  1  0
  8 42  1  0
  8 43  1  0
  9 44  1  0
  9 45  1  0
 11 46  1  0
 12 47  1  0
 13 48  1  0
 18 49  1  0
 20 50  1  0
 20 51  1  0
 21 52  1  0
 21 53  1  0
 22 54  1  0
 22 55  1  0
 23 56  1  0
 25 57  1  0
 26 58  1  0
 27 59  1  0
 28 60  1  0
 29 61  1  0
M  END
>  <Energy>  (761) 
108.50729796118596

>  <compound_id>  (761) 
4323

>  <target_id>  (761) 
1

>  <reference_id>  (761) 
163

>  <inspiration_ids>  (761) 
[152, 163]

>  <energy_score>  (761) 
-69.31825951251247

>  <distance_score>  (761) 
3.479342942407787

>  <path>  (761) 
/opt/xchem-fragalysis-2/maxwin/BulkDock/SCRATCH/505735/C4323-P163/C4323-P163.minimised.mol

>  <scratch_subdir>  (761) 
/opt/xchem-fragalysis-2/maxwin/BulkDock/SCRATCH/505735/C4323-P163

>  <fragmenstein_runtime>  (761) 
8.392077445983887

>  <fragmenstein_outcome>  (761) 
too moved

>  <fragmenstein_mode>  (761) 
expansion

>  <fragmenstein_error>  (761) 


$$$$
C4352-P152
     RDKit          3D

 48 53  0  0  0  0  0  0  0  0999 V2000
    2.5122   -8.9821   39.7581 C   0  0  0  0  0  0  0  0  0  0  0  0
    1.2178   -8.4970   39.7517 C   0  0  0  0  0  0  0  0  0  0  0  0
    0.9026   -7.2726   39.1390 C   0  0  0  0  0  0  0  0  0  0  0  0
    1.8545   -6.5017   38.4669 C   0  0  0  0  0  0  0  0  0  0  0  0
    1.4511   -5.1546   37.8056 C   0  0  0  0  0  0  0  0  0  0  0  0
    2.6546   -4.2400   37.5679 C   0  0  0  0  0  0  0  0  0  0  0  0
    3.4243   -4.6276   36.3133 C   0  0  0  0  0  0  0  0  0  0  0  0
    2.5605   -4.6146   35.0723 C   0  0  0  0  0  0  0  0  0  0  0  0
    1.2180   -5.3726   35.1287 C   0  0  0  0  0  0  0  0  0  0  0  0
    1.3526   -6.8844   35.3117 C   0  0  0  0  0  0  0  0  0  0  0  0
   -0.0239   -7.2713   35.8893 C   0  0  0  0  0  0  0  0  0  0  0  0
   -0.9844   -7.8048   34.8639 C   0  0  0  0  0  0  0  0  0  0  0  0
   -0.8954   -7.3079   33.4835 C   0  0  0  0  0  0  0  0  0  0  0  0
   -1.3949   -7.9622   32.4505 N   0  0  0  0  0  0  0  0  0  0  0  0
   -1.1787   -7.2265   31.3280 N   0  0  0  0  0  0  0  0  0  0  0  0
   -0.5748   -6.1205   31.6972 C   0  0  0  0  0  0  0  0  0  0  0  0
   -0.1918   -4.9889   30.9445 C   0  0  0  0  0  0  0  0  0  0  0  0
    0.3880   -3.9594   31.5732 C   0  0  0  0  0  0  0  0  0  0  0  0
    0.7374   -4.0281   32.9797 C   0  0  0  0  0  0  0  0  0  0  0  0
    0.4711   -5.1251   33.7368 C   0  0  0  0  0  0  0  0  0  0  0  0
   -0.2945   -6.1376   33.0699 N   0  0  0  0  0  0  0  0  0  0  0  0
   -0.6168   -6.0194   36.5193 C   0  0  0  0  0  0  0  0  0  0  0  0
    0.5280   -5.0480   36.4915 C   0  0  0  0  0  0  0  0  0  0  0  0
    3.1686   -6.9944   38.5535 C   0  0  0  0  0  0  0  0  0  0  0  0
    3.4936   -8.2161   39.1681 C   0  0  0  0  0  0  0  0  0  0  0  0
    2.7395   -9.9312   40.2336 H   0  0  0  0  0  0  0  0  0  0  0  0
    0.4312   -9.0763   40.2333 H   0  0  0  0  0  0  0  0  0  0  0  0
   -0.1242   -6.9291   39.2278 H   0  0  0  0  0  0  0  0  0  0  0  0
    0.8648   -4.6602   38.5967 H   0  0  0  0  0  0  0  0  0  0  0  0
    3.3259   -4.2211   38.4347 H   0  0  0  0  0  0  0  0  0  0  0  0
    2.2988   -3.2071   37.4504 H   0  0  0  0  0  0  0  0  0  0  0  0
    3.9003   -5.6059   36.3833 H   0  0  0  0  0  0  0  0  0  0  0  0
    4.2492   -3.9161   36.1786 H   0  0  0  0  0  0  0  0  0  0  0  0
    3.1616   -4.9721   34.2255 H   0  0  0  0  0  0  0  0  0  0  0  0
    2.3774   -3.5472   34.9079 H   0  0  0  0  0  0  0  0  0  0  0  0
    1.5983   -7.3999   34.3922 H   0  0  0  0  0  0  0  0  0  0  0  0
    2.1533   -7.1594   35.9989 H   0  0  0  0  0  0  0  0  0  0  0  0
    0.1069   -8.0413   36.6562 H   0  0  0  0  0  0  0  0  0  0  0  0
   -2.0214   -7.7736   35.2044 H   0  0  0  0  0  0  0  0  0  0  0  0
   -0.7196   -8.8384   34.8074 H   0  0  0  0  0  0  0  0  0  0  0  0
   -0.4102   -4.9486   29.8832 H   0  0  0  0  0  0  0  0  0  0  0  0
    0.6621   -3.0619   31.0243 H   0  0  0  0  0  0  0  0  0  0  0  0
    1.3048   -3.1727   33.3263 H   0  0  0  0  0  0  0  0  0  0  0  0
   -1.0192   -6.1760   37.5172 H   0  0  0  0  0  0  0  0  0  0  0  0
   -1.4431   -5.6155   35.9251 H   0  0  0  0  0  0  0  0  0  0  0  0
    0.1381   -4.0212   36.4566 H   0  0  0  0  0  0  0  0  0  0  0  0
    4.0157   -6.4341   38.1761 H   0  0  0  0  0  0  0  0  0  0  0  0
    4.5279   -8.5495   39.1929 H   0  0  0  0  0  0  0  0  0  0  0  0
  1  2  2  0
  2  3  1  0
  3  4  2  0
  4  5  1  0
  5  6  1  0
  6  7  1  0
  7  8  1  0
  8  9  1  0
  9 10  1  0
 10 11  1  0
 11 12  1  0
 12 13  1  0
 13 14  2  0
 14 15  1  0
 15 16  2  0
 16 17  1  0
 17 18  2  0
 18 19  1  0
 19 20  2  0
 20 21  1  0
 11 22  1  0
 22 23  1  0
  4 24  1  0
 24 25  2  0
 25  1  1  0
 23  5  1  0
 20  9  1  0
 23  9  1  0
 21 13  1  0
 21 16  1  0
  1 26  1  0
  2 27  1  0
  3 28  1  0
  5 29  1  0
  6 30  1  0
  6 31  1  0
  7 32  1  0
  7 33  1  0
  8 34  1  0
  8 35  1  0
 10 36  1  0
 10 37  1  0
 11 38  1  0
 12 39  1  0
 12 40  1  0
 17 41  1  0
 18 42  1  0
 19 43  1  0
 22 44  1  0
 22 45  1  0
 23 46  1  0
 24 47  1  0
 25 48  1  0
M  END
>  <Energy>  (762) 
121.9324612314072

>  <compound_id>  (762) 
4352

>  <target_id>  (762) 
1

>  <reference_id>  (762) 
152

>  <inspiration_ids>  (762) 
[152, 168]

>  <energy_score>  (762) 
-25.476025108813587

>  <distance_score>  (762) 
2.225690014329872

>  <path>  (762) 
/opt/xchem-fragalysis-2/maxwin/BulkDock/SCRATCH/505735/C4352-P152/C4352-P152.minimised.mol

>  <scratch_subdir>  (762) 
/opt/xchem-fragalysis-2/maxwin/BulkDock/SCRATCH/505735/C4352-P152

>  <fragmenstein_runtime>  (762) 
4.995701313018799

>  <fragmenstein_outcome>  (762) 
too moved

>  <fragmenstein_mode>  (762) 
expansion

>  <fragmenstein_error>  (762) 


$$$$
C4352-P168
     RDKit          3D

 48 53  0  0  0  0  0  0  0  0999 V2000
    2.4963   -9.0250   39.8866 C   0  0  0  0  0  0  0  0  0  0  0  0
    3.5180   -8.3661   39.2276 C   0  0  0  0  0  0  0  0  0  0  0  0
    3.2444   -7.1855   38.5232 C   0  0  0  0  0  0  0  0  0  0  0  0
    1.9427   -6.6430   38.4074 C   0  0  0  0  0  0  0  0  0  0  0  0
    1.6168   -5.3177   37.6634 C   0  0  0  0  0  0  0  0  0  0  0  0
    2.8809   -4.5525   37.2660 C   0  0  0  0  0  0  0  0  0  0  0  0
    3.5397   -5.1753   36.0431 C   0  0  0  0  0  0  0  0  0  0  0  0
    2.6341   -5.1891   34.8351 C   0  0  0  0  0  0  0  0  0  0  0  0
    1.1891   -5.6948   35.0269 C   0  0  0  0  0  0  0  0  0  0  0  0
    1.0852   -7.2067   35.2779 C   0  0  0  0  0  0  0  0  0  0  0  0
   -0.3413   -7.3543   35.8641 C   0  0  0  0  0  0  0  0  0  0  0  0
   -1.4561   -7.5817   34.8509 C   0  0  0  0  0  0  0  0  0  0  0  0
   -1.0770   -7.4239   33.4364 C   0  0  0  0  0  0  0  0  0  0  0  0
   -1.5108   -8.1407   32.4175 N   0  0  0  0  0  0  0  0  0  0  0  0
   -1.1724   -7.4859   31.2629 N   0  0  0  0  0  0  0  0  0  0  0  0
   -0.5494   -6.3796   31.6081 C   0  0  0  0  0  0  0  0  0  0  0  0
   -0.1103   -5.2665   30.8536 C   0  0  0  0  0  0  0  0  0  0  0  0
    0.4311   -4.2202   31.4961 C   0  0  0  0  0  0  0  0  0  0  0  0
    0.7264   -4.2678   32.9199 C   0  0  0  0  0  0  0  0  0  0  0  0
    0.4329   -5.3666   33.6623 C   0  0  0  0  0  0  0  0  0  0  0  0
   -0.3390   -6.3535   32.9840 N   0  0  0  0  0  0  0  0  0  0  0  0
   -0.6296   -6.0233   36.5761 C   0  0  0  0  0  0  0  0  0  0  0  0
    0.6323   -5.2133   36.4043 C   0  0  0  0  0  0  0  0  0  0  0  0
    0.9498   -7.3091   39.1414 C   0  0  0  0  0  0  0  0  0  0  0  0
    1.2165   -8.4864   39.8551 C   0  0  0  0  0  0  0  0  0  0  0  0
    2.6833   -9.9446   40.4336 H   0  0  0  0  0  0  0  0  0  0  0  0
    4.5331   -8.7502   39.2759 H   0  0  0  0  0  0  0  0  0  0  0  0
    4.1155   -6.6912   38.1093 H   0  0  0  0  0  0  0  0  0  0  0  0
    1.1389   -4.7078   38.4464 H   0  0  0  0  0  0  0  0  0  0  0  0
    3.5949   -4.4915   38.0959 H   0  0  0  0  0  0  0  0  0  0  0  0
    2.6175   -3.5118   37.0323 H   0  0  0  0  0  0  0  0  0  0  0  0
    3.8843   -6.1970   36.2047 H   0  0  0  0  0  0  0  0  0  0  0  0
    4.4443   -4.6014   35.8042 H   0  0  0  0  0  0  0  0  0  0  0  0
    3.1246   -5.7551   34.0315 H   0  0  0  0  0  0  0  0  0  0  0  0
    2.6404   -4.1425   34.5185 H   0  0  0  0  0  0  0  0  0  0  0  0
    1.2787   -7.8048   34.3882 H   0  0  0  0  0  0  0  0  0  0  0  0
    1.8266   -7.5540   36.0009 H   0  0  0  0  0  0  0  0  0  0  0  0
   -0.3534   -8.1669   36.5947 H   0  0  0  0  0  0  0  0  0  0  0  0
   -2.2822   -6.8966   35.0310 H   0  0  0  0  0  0  0  0  0  0  0  0
   -1.9472   -8.5261   35.0399 H   0  0  0  0  0  0  0  0  0  0  0  0
   -0.2777   -5.2466   29.7826 H   0  0  0  0  0  0  0  0  0  0  0  0
    0.7346   -3.3317   30.9477 H   0  0  0  0  0  0  0  0  0  0  0  0
    1.2998   -3.4252   33.2906 H   0  0  0  0  0  0  0  0  0  0  0  0
   -0.9540   -6.1426   37.6072 H   0  0  0  0  0  0  0  0  0  0  0  0
   -1.4421   -5.4582   36.1049 H   0  0  0  0  0  0  0  0  0  0  0  0
    0.3632   -4.1511   36.3115 H   0  0  0  0  0  0  0  0  0  0  0  0
   -0.0560   -6.9108   39.2161 H   0  0  0  0  0  0  0  0  0  0  0  0
    0.4129   -8.9909   40.3877 H   0  0  0  0  0  0  0  0  0  0  0  0
  1  2  2  0
  2  3  1  0
  3  4  2  0
  4  5  1  0
  5  6  1  0
  6  7  1  0
  7  8  1  0
  8  9  1  0
  9 10  1  0
 10 11  1  0
 11 12  1  0
 12 13  1  0
 13 14  2  0
 14 15  1  0
 15 16  2  0
 16 17  1  0
 17 18  2  0
 18 19  1  0
 19 20  2  0
 20 21  1  0
 11 22  1  0
 22 23  1  0
  4 24  1  0
 24 25  2  0
 25  1  1  0
 23  5  1  0
 20  9  1  0
 23  9  1  0
 21 13  1  0
 21 16  1  0
  1 26  1  0
  2 27  1  0
  3 28  1  0
  5 29  1  0
  6 30  1  0
  6 31  1  0
  7 32  1  0
  7 33  1  0
  8 34  1  0
  8 35  1  0
 10 36  1  0
 10 37  1  0
 11 38  1  0
 12 39  1  0
 12 40  1  0
 17 41  1  0
 18 42  1  0
 19 43  1  0
 22 44  1  0
 22 45  1  0
 23 46  1  0
 24 47  1  0
 25 48  1  0
M  END
>  <Energy>  (763) 
128.50236451577351

>  <compound_id>  (763) 
4352

>  <target_id>  (763) 
1

>  <reference_id>  (763) 
168

>  <inspiration_ids>  (763) 
[152, 168]

>  <energy_score>  (763) 
-18.906121824449443

>  <distance_score>  (763) 
2.0879179551796074

>  <path>  (763) 
/opt/xchem-fragalysis-2/maxwin/BulkDock/SCRATCH/505735/C4352-P168/C4352-P168.minimised.mol

>  <scratch_subdir>  (763) 
/opt/xchem-fragalysis-2/maxwin/BulkDock/SCRATCH/505735/C4352-P168

>  <fragmenstein_runtime>  (763) 
3.429039716720581

>  <fragmenstein_outcome>  (763) 
too moved

>  <fragmenstein_mode>  (763) 
expansion

>  <fragmenstein_error>  (763) 


$$$$
C4353-P152
     RDKit          3D

 73 77  0  0  0  0  0  0  0  0999 V2000
   -0.5011   -1.0684   33.6663 C   0  0  0  0  0  0  0  0  0  0  0  0
   -1.7687   -1.3923   32.8905 C   0  0  0  0  0  0  0  0  0  0  0  0
   -1.8386   -2.8307   32.3557 C   0  0  0  0  0  0  0  0  0  0  0  0
   -0.8048   -3.3985   31.3500 C   0  0  0  0  0  0  0  0  0  0  0  0
   -1.0563   -2.8800   29.9056 C   0  0  0  0  0  0  0  0  0  0  0  0
   -1.1023   -1.3394   29.6776 C   0  0  0  0  0  0  0  0  0  0  0  0
   -0.0664   -0.6292   30.4520 N   0  0  0  0  0  0  0  0  0  0  0  0
    1.1282   -0.6848   29.6351 C   0  0  0  0  0  0  0  0  0  0  0  0
    0.7124   -0.9371   28.2752 N   0  0  0  0  0  0  0  0  0  0  0  0
   -0.7484   -0.9293   28.2443 C   0  0  0  0  0  0  0  0  0  0  0  0
   -1.2288    1.1150   27.7412 I   0  0  0  0  0  0  0  0  0  0  0  0
   -0.7293   -4.9205   31.2664 N   0  0  0  0  0  0  0  0  0  0  0  0
   -1.4013   -5.6708   32.3200 N   0  0  0  0  0  0  0  0  0  0  0  0
   -0.5746   -6.8194   32.6394 C   0  0  0  0  0  0  0  0  0  0  0  0
    0.7648   -6.3575   32.4164 N   0  0  0  0  0  0  0  0  0  0  0  0
    0.6083   -5.5365   31.2041 C   0  0  0  0  0  0  0  0  0  0  0  0
    1.8437   -4.7161   30.8637 C   0  0  0  0  0  0  0  0  0  0  0  0
    2.4861   -4.0003   32.0440 C   0  0  0  0  0  0  0  0  0  0  0  0
    1.7860   -4.2387   33.3748 C   0  0  0  0  0  0  0  0  0  0  0  0
    1.3822   -5.7003   33.5714 C   0  0  0  0  0  0  0  0  0  0  0  0
    0.7359   -5.9393   34.8744 N   0  0  0  0  0  0  0  0  0  0  0  0
   -0.1334   -4.9403   35.5159 C   0  0  0  0  0  0  0  0  0  0  0  0
    0.6025   -4.2885   36.6899 C   0  0  0  0  0  0  0  0  0  0  0  0
    1.0638   -5.3006   37.7483 C   0  0  0  0  0  0  0  0  0  0  0  0
    1.9998   -6.3737   37.1660 C   0  0  0  0  0  0  0  0  0  0  0  0
    2.4915   -7.3919   38.1725 C   0  0  0  0  0  0  0  0  0  0  0  0
    3.8618   -7.6939   38.2379 C   0  0  0  0  0  0  0  0  0  0  0  0
    4.3412   -8.6473   39.1382 C   0  0  0  0  0  0  0  0  0  0  0  0
    3.4598   -9.3133   39.9845 C   0  0  0  0  0  0  0  0  0  0  0  0
    2.0999   -9.0251   39.9326 C   0  0  0  0  0  0  0  0  0  0  0  0
    1.6177   -8.0717   39.0350 C   0  0  0  0  0  0  0  0  0  0  0  0
    1.1637   -7.2554   35.8277 S   0  0  0  0  0  0  0  0  0  0  0  0
   -0.0810   -7.8126   36.3155 O   0  0  0  0  0  0  0  0  0  0  0  0
    2.1009   -8.0641   35.0720 O   0  0  0  0  0  0  0  0  0  0  0  0
    0.3994   -1.1786   33.0585 H   0  0  0  0  0  0  0  0  0  0  0  0
   -0.4040   -1.7182   34.5415 H   0  0  0  0  0  0  0  0  0  0  0  0
   -0.5375   -0.0347   34.0252 H   0  0  0  0  0  0  0  0  0  0  0  0
   -1.9468   -0.6511   32.1123 H   0  0  0  0  0  0  0  0  0  0  0  0
   -2.6109   -1.2652   33.5847 H   0  0  0  0  0  0  0  0  0  0  0  0
   -1.7238   -3.4197   33.2558 H   0  0  0  0  0  0  0  0  0  0  0  0
   -2.8474   -2.9627   31.9555 H   0  0  0  0  0  0  0  0  0  0  0  0
    0.1584   -3.0056   31.6568 H   0  0  0  0  0  0  0  0  0  0  0  0
   -0.2930   -3.3114   29.2458 H   0  0  0  0  0  0  0  0  0  0  0  0
   -2.0006   -3.2725   29.5341 H   0  0  0  0  0  0  0  0  0  0  0  0
   -2.0909   -0.9682   29.9615 H   0  0  0  0  0  0  0  0  0  0  0  0
   -0.3390    0.3554   30.4762 H   0  0  0  0  0  0  0  0  0  0  0  0
    1.7825   -1.4931   29.9739 H   0  0  0  0  0  0  0  0  0  0  0  0
    1.6973    0.2479   29.7174 H   0  0  0  0  0  0  0  0  0  0  0  0
    1.0505   -0.2119   27.6490 H   0  0  0  0  0  0  0  0  0  0  0  0
   -1.1604   -1.6143   27.5024 H   0  0  0  0  0  0  0  0  0  0  0  0
   -2.2550   -6.1088   31.9848 H   0  0  0  0  0  0  0  0  0  0  0  0
   -0.8084   -7.2408   33.6198 H   0  0  0  0  0  0  0  0  0  0  0  0
   -0.7898   -7.6332   31.9312 H   0  0  0  0  0  0  0  0  0  0  0  0
    0.5237   -6.2477   30.3680 H   0  0  0  0  0  0  0  0  0  0  0  0
    1.6375   -4.0005   30.0616 H   0  0  0  0  0  0  0  0  0  0  0  0
    2.5945   -5.3831   30.4224 H   0  0  0  0  0  0  0  0  0  0  0  0
    3.5302   -4.3257   32.1297 H   0  0  0  0  0  0  0  0  0  0  0  0
    2.5376   -2.9225   31.8498 H   0  0  0  0  0  0  0  0  0  0  0  0
    2.4656   -3.9307   34.1799 H   0  0  0  0  0  0  0  0  0  0  0  0
    0.9297   -3.5733   33.4556 H   0  0  0  0  0  0  0  0  0  0  0  0
    2.3618   -6.1860   33.6404 H   0  0  0  0  0  0  0  0  0  0  0  0
   -0.4640   -4.1756   34.8182 H   0  0  0  0  0  0  0  0  0  0  0  0
   -1.0485   -5.4290   35.8699 H   0  0  0  0  0  0  0  0  0  0  0  0
    1.4732   -3.7323   36.3244 H   0  0  0  0  0  0  0  0  0  0  0  0
   -0.0629   -3.5575   37.1639 H   0  0  0  0  0  0  0  0  0  0  0  0
    1.5793   -4.7632   38.5538 H   0  0  0  0  0  0  0  0  0  0  0  0
    0.1729   -5.7563   38.1976 H   0  0  0  0  0  0  0  0  0  0  0  0
    2.8613   -5.8794   36.6981 H   0  0  0  0  0  0  0  0  0  0  0  0
    4.5731   -7.1985   37.5802 H   0  0  0  0  0  0  0  0  0  0  0  0
    5.4026   -8.8784   39.1735 H   0  0  0  0  0  0  0  0  0  0  0  0
    3.8250  -10.0688   40.6751 H   0  0  0  0  0  0  0  0  0  0  0  0
    1.4042   -9.5726   40.5664 H   0  0  0  0  0  0  0  0  0  0  0  0
    0.5429   -7.9050   39.0010 H   0  0  0  0  0  0  0  0  0  0  0  0
  1  2  1  0
  2  3  1  0
  3  4  1  0
  4  5  1  0
  5  6  1  0
  6  7  1  0
  7  8  1  0
  8  9  1  0
  9 10  1  0
 10 11  1  0
  4 12  1  0
 12 13  1  0
 13 14  1  0
 14 15  1  0
 15 16  1  0
 16 17  1  0
 17 18  1  0
 18 19  1  0
 19 20  1  0
 20 21  1  0
 21 22  1  0
 22 23  1  0
 23 24  1  0
 24 25  1  0
 25 26  1  0
 26 27  2  0
 27 28  1  0
 28 29  2  0
 29 30  1  0
 30 31  2  0
 25 32  1  0
 32 33  2  0
 32 34  2  0
 10  6  1  0
 16 12  1  0
 32 21  1  0
 20 15  1  0
 31 26  1  0
  1 35  1  0
  1 36  1  0
  1 37  1  0
  2 38  1  0
  2 39  1  0
  3 40  1  0
  3 41  1  0
  4 42  1  0
  5 43  1  0
  5 44  1  0
  6 45  1  0
  7 46  1  0
  8 47  1  0
  8 48  1  0
  9 49  1  0
 10 50  1  0
 13 51  1  0
 14 52  1  0
 14 53  1  0
 16 54  1  0
 17 55  1  0
 17 56  1  0
 18 57  1  0
 18 58  1  0
 19 59  1  0
 19 60  1  0
 20 61  1  0
 22 62  1  0
 22 63  1  0
 23 64  1  0
 23 65  1  0
 24 66  1  0
 24 67  1  0
 25 68  1  0
 27 69  1  0
 28 70  1  0
 29 71  1  0
 30 72  1  0
 31 73  1  0
M  END
>  <Energy>  (764) 
-16.528918203345395

>  <compound_id>  (764) 
4353

>  <target_id>  (764) 
1

>  <reference_id>  (764) 
152

>  <inspiration_ids>  (764) 
[152, 186]

>  <energy_score>  (764) 
-81.71021623850214

>  <distance_score>  (764) 
1.6006008080296812

>  <path>  (764) 
/opt/xchem-fragalysis-2/maxwin/BulkDock/SCRATCH/505735/C4353-P152/C4353-P152.minimised.mol

>  <scratch_subdir>  (764) 
/opt/xchem-fragalysis-2/maxwin/BulkDock/SCRATCH/505735/C4353-P152

>  <fragmenstein_runtime>  (764) 
9.716337203979492

>  <fragmenstein_outcome>  (764) 
too moved

>  <fragmenstein_mode>  (764) 
expansion

>  <fragmenstein_error>  (764) 


$$$$
C4353-P186
     RDKit          3D

 73 77  0  0  0  0  0  0  0  0999 V2000
    0.3421   -0.9038   33.2084 C   0  0  0  0  0  0  0  0  0  0  0  0
   -1.1583   -1.1012   33.0887 C   0  0  0  0  0  0  0  0  0  0  0  0
   -1.6033   -2.5316   32.7570 C   0  0  0  0  0  0  0  0  0  0  0  0
   -0.9048   -3.3392   31.6023 C   0  0  0  0  0  0  0  0  0  0  0  0
   -1.5243   -3.0124   30.2169 C   0  0  0  0  0  0  0  0  0  0  0  0
   -1.1655   -1.7463   29.4145 C   0  0  0  0  0  0  0  0  0  0  0  0
   -1.5590   -0.4994   30.0770 N   0  0  0  0  0  0  0  0  0  0  0  0
   -0.5824    0.5098   29.7057 C   0  0  0  0  0  0  0  0  0  0  0  0
    0.3313   -0.0962   28.7677 N   0  0  0  0  0  0  0  0  0  0  0  0
    0.3021   -1.5256   29.0794 C   0  0  0  0  0  0  0  0  0  0  0  0
    0.9701   -2.5294   27.3621 I   0  0  0  0  0  0  0  0  0  0  0  0
   -1.0912   -4.8368   31.7469 N   0  0  0  0  0  0  0  0  0  0  0  0
   -1.3482   -5.2602   33.0807 N   0  0  0  0  0  0  0  0  0  0  0  0
   -0.9383   -6.6329   33.1725 C   0  0  0  0  0  0  0  0  0  0  0  0
    0.3533   -6.5569   32.5356 N   0  0  0  0  0  0  0  0  0  0  0  0
    0.0091   -5.7489   31.3358 C   0  0  0  0  0  0  0  0  0  0  0  0
    1.2294   -5.2374   30.5871 C   0  0  0  0  0  0  0  0  0  0  0  0
    2.2500   -4.5064   31.4387 C   0  0  0  0  0  0  0  0  0  0  0  0
    1.9693   -4.5870   32.9286 C   0  0  0  0  0  0  0  0  0  0  0  0
    1.3906   -5.9391   33.3900 C   0  0  0  0  0  0  0  0  0  0  0  0
    1.1938   -5.8885   34.8627 N   0  0  0  0  0  0  0  0  0  0  0  0
    0.3726   -4.8328   35.4962 C   0  0  0  0  0  0  0  0  0  0  0  0
    1.1097   -4.2648   36.7081 C   0  0  0  0  0  0  0  0  0  0  0  0
    1.4129   -5.3299   37.7632 C   0  0  0  0  0  0  0  0  0  0  0  0
    2.2889   -6.4581   37.1966 C   0  0  0  0  0  0  0  0  0  0  0  0
    2.6757   -7.5055   38.2148 C   0  0  0  0  0  0  0  0  0  0  0  0
    4.0196   -7.9003   38.3167 C   0  0  0  0  0  0  0  0  0  0  0  0
    4.4133   -8.8584   39.2515 C   0  0  0  0  0  0  0  0  0  0  0  0
    3.4712   -9.4347   40.0975 C   0  0  0  0  0  0  0  0  0  0  0  0
    2.1358   -9.0555   40.0065 C   0  0  0  0  0  0  0  0  0  0  0  0
    1.7377   -8.1012   39.0697 C   0  0  0  0  0  0  0  0  0  0  0  0
    1.4615   -7.2592   35.8054 S   0  0  0  0  0  0  0  0  0  0  0  0
    0.1607   -7.7401   36.2246 O   0  0  0  0  0  0  0  0  0  0  0  0
    2.3917   -8.1041   35.0801 O   0  0  0  0  0  0  0  0  0  0  0  0
    0.8520   -1.0618   32.2556 H   0  0  0  0  0  0  0  0  0  0  0  0
    0.7689   -1.5825   33.9525 H   0  0  0  0  0  0  0  0  0  0  0  0
    0.5589    0.1201   33.5304 H   0  0  0  0  0  0  0  0  0  0  0  0
   -1.5843   -0.3750   32.4006 H   0  0  0  0  0  0  0  0  0  0  0  0
   -1.6041   -0.8389   34.0583 H   0  0  0  0  0  0  0  0  0  0  0  0
   -1.4453   -3.0443   33.7088 H   0  0  0  0  0  0  0  0  0  0  0  0
   -2.6899   -2.5323   32.6013 H   0  0  0  0  0  0  0  0  0  0  0  0
    0.1461   -3.0794   31.5938 H   0  0  0  0  0  0  0  0  0  0  0  0
   -1.3117   -3.8411   29.5313 H   0  0  0  0  0  0  0  0  0  0  0  0
   -2.6048   -2.9908   30.3618 H   0  0  0  0  0  0  0  0  0  0  0  0
   -1.7442   -1.7968   28.4794 H   0  0  0  0  0  0  0  0  0  0  0  0
   -2.4640   -0.2093   29.7223 H   0  0  0  0  0  0  0  0  0  0  0  0
   -0.0434    0.8473   30.5968 H   0  0  0  0  0  0  0  0  0  0  0  0
   -1.0642    1.3856   29.2598 H   0  0  0  0  0  0  0  0  0  0  0  0
   -0.0378    0.0343   27.8270 H   0  0  0  0  0  0  0  0  0  0  0  0
    0.9555   -1.7191   29.9355 H   0  0  0  0  0  0  0  0  0  0  0  0
   -2.2592   -5.0677   33.4872 H   0  0  0  0  0  0  0  0  0  0  0  0
   -0.9483   -7.0196   34.1891 H   0  0  0  0  0  0  0  0  0  0  0  0
   -1.6076   -7.2962   32.6074 H   0  0  0  0  0  0  0  0  0  0  0  0
   -0.4689   -6.4481   30.6332 H   0  0  0  0  0  0  0  0  0  0  0  0
    0.9244   -4.6077   29.7493 H   0  0  0  0  0  0  0  0  0  0  0  0
    1.7298   -6.0905   30.1153 H   0  0  0  0  0  0  0  0  0  0  0  0
    3.2464   -4.9036   31.2297 H   0  0  0  0  0  0  0  0  0  0  0  0
    2.3105   -3.4533   31.1388 H   0  0  0  0  0  0  0  0  0  0  0  0
    2.9018   -4.3834   33.4727 H   0  0  0  0  0  0  0  0  0  0  0  0
    1.3104   -3.7626   33.1961 H   0  0  0  0  0  0  0  0  0  0  0  0
    2.2470   -6.6042   33.2357 H   0  0  0  0  0  0  0  0  0  0  0  0
    0.1734   -4.0030   34.8234 H   0  0  0  0  0  0  0  0  0  0  0  0
   -0.6000   -5.2352   35.8007 H   0  0  0  0  0  0  0  0  0  0  0  0
    2.0476   -3.7973   36.3831 H   0  0  0  0  0  0  0  0  0  0  0  0
    0.4994   -3.4751   37.1617 H   0  0  0  0  0  0  0  0  0  0  0  0
    1.9246   -4.8563   38.6101 H   0  0  0  0  0  0  0  0  0  0  0  0
    0.4626   -5.7195   38.1478 H   0  0  0  0  0  0  0  0  0  0  0  0
    3.2015   -6.0162   36.7745 H   0  0  0  0  0  0  0  0  0  0  0  0
    4.7769   -7.4704   37.6643 H   0  0  0  0  0  0  0  0  0  0  0  0
    5.4554   -9.1602   39.3157 H   0  0  0  0  0  0  0  0  0  0  0  0
    3.7699  -10.1915   40.8174 H   0  0  0  0  0  0  0  0  0  0  0  0
    1.3902   -9.5346   40.6379 H   0  0  0  0  0  0  0  0  0  0  0  0
    0.6780   -7.8649   39.0018 H   0  0  0  0  0  0  0  0  0  0  0  0
  1  2  1  0
  2  3  1  0
  3  4  1  0
  4  5  1  0
  5  6  1  0
  6  7  1  0
  7  8  1  0
  8  9  1  0
  9 10  1  0
 10 11  1  0
  4 12  1  0
 12 13  1  0
 13 14  1  0
 14 15  1  0
 15 16  1  0
 16 17  1  0
 17 18  1  0
 18 19  1  0
 19 20  1  0
 20 21  1  0
 21 22  1  0
 22 23  1  0
 23 24  1  0
 24 25  1  0
 25 26  1  0
 26 27  2  0
 27 28  1  0
 28 29  2  0
 29 30  1  0
 30 31  2  0
 25 32  1  0
 32 33  2  0
 32 34  2  0
 10  6  1  0
 16 12  1  0
 32 21  1  0
 20 15  1  0
 31 26  1  0
  1 35  1  0
  1 36  1  0
  1 37  1  0
  2 38  1  0
  2 39  1  0
  3 40  1  0
  3 41  1  0
  4 42  1  0
  5 43  1  0
  5 44  1  0
  6 45  1  0
  7 46  1  0
  8 47  1  0
  8 48  1  0
  9 49  1  0
 10 50  1  0
 13 51  1  0
 14 52  1  0
 14 53  1  0
 16 54  1  0
 17 55  1  0
 17 56  1  0
 18 57  1  0
 18 58  1  0
 19 59  1  0
 19 60  1  0
 20 61  1  0
 22 62  1  0
 22 63  1  0
 23 64  1  0
 23 65  1  0
 24 66  1  0
 24 67  1  0
 25 68  1  0
 27 69  1  0
 28 70  1  0
 29 71  1  0
 30 72  1  0
 31 73  1  0
M  END
>  <Energy>  (765) 
-13.913334507656909

>  <compound_id>  (765) 
4353

>  <target_id>  (765) 
1

>  <reference_id>  (765) 
186

>  <inspiration_ids>  (765) 
[152, 186]

>  <energy_score>  (765) 
-79.09463254281278

>  <distance_score>  (765) 
1.4557695025129287

>  <path>  (765) 
/opt/xchem-fragalysis-2/maxwin/BulkDock/SCRATCH/505735/C4353-P186/C4353-P186.minimised.mol

>  <scratch_subdir>  (765) 
/opt/xchem-fragalysis-2/maxwin/BulkDock/SCRATCH/505735/C4353-P186

>  <fragmenstein_runtime>  (765) 
9.308114051818848

>  <fragmenstein_outcome>  (765) 
too moved

>  <fragmenstein_mode>  (765) 
expansion

>  <fragmenstein_error>  (765) 


$$$$
C4354-P152
     RDKit          3D

 73 78  0  0  0  0  0  0  0  0999 V2000
   -0.4628   -7.7950   36.2659 O   0  0  0  0  0  0  0  0  0  0  0  0
    0.8093   -7.1895   35.9452 S   0  0  0  0  0  0  0  0  0  0  0  0
    1.8554   -7.9416   35.2738 O   0  0  0  0  0  0  0  0  0  0  0  0
    1.4198   -6.3254   37.4237 C   0  0  0  0  0  0  0  0  0  0  0  0
    2.2099   -7.3157   38.2486 C   0  0  0  0  0  0  0  0  0  0  0  0
    3.5996   -7.4679   38.1389 C   0  0  0  0  0  0  0  0  0  0  0  0
    4.2745   -8.4165   38.9130 C   0  0  0  0  0  0  0  0  0  0  0  0
    3.5730   -9.2255   39.8030 C   0  0  0  0  0  0  0  0  0  0  0  0
    2.1945   -9.0902   39.9194 C   0  0  0  0  0  0  0  0  0  0  0  0
    1.5179   -8.1462   39.1476 C   0  0  0  0  0  0  0  0  0  0  0  0
    2.1229   -5.0279   37.0165 C   0  0  0  0  0  0  0  0  0  0  0  0
    1.1987   -4.0120   36.3052 C   0  0  0  0  0  0  0  0  0  0  0  0
   -0.0088   -4.6387   35.5751 C   0  0  0  0  0  0  0  0  0  0  0  0
   -0.7297   -3.7782   34.6331 N   0  0  0  0  0  0  0  0  0  0  0  0
   -0.6260   -2.3287   34.7586 C   0  0  0  0  0  0  0  0  0  0  0  0
   -1.6652   -1.5664   33.8919 C   0  0  0  0  0  0  0  0  0  0  0  0
   -1.7512   -1.6673   32.3289 C   0  0  0  0  0  0  0  0  0  0  0  0
   -1.2634   -0.4026   31.5618 C   0  0  0  0  0  0  0  0  0  0  0  0
    0.0829   -0.4705   30.9515 N   0  0  0  0  0  0  0  0  0  0  0  0
    0.1342   -0.8251   29.5194 C   0  0  0  0  0  0  0  0  0  0  0  0
   -0.5010    0.2335   28.7080 C   0  0  0  0  0  0  0  0  0  0  0  0
   -1.3565    0.0057   27.5896 C   0  0  0  0  0  0  0  0  0  0  0  0
   -1.8127    1.1833   27.0447 C   0  0  0  0  0  0  0  0  0  0  0  0
   -1.1902    2.5490   27.8487 S   0  0  0  0  0  0  0  0  0  0  0  0
   -0.3118    1.5806   28.9269 C   0  0  0  0  0  0  0  0  0  0  0  0
    0.9524   -1.3388   31.7109 C   0  0  0  0  0  0  0  0  0  0  0  0
    0.4153   -2.7573   31.6801 C   0  0  0  0  0  0  0  0  0  0  0  0
   -1.1121   -2.8538   31.6305 C   0  0  0  0  0  0  0  0  0  0  0  0
   -1.6057   -4.0939   32.0883 O   0  0  0  0  0  0  0  0  0  0  0  0
    0.4620   -5.8828   34.9436 N   0  0  0  0  0  0  0  0  0  0  0  0
    0.4537   -6.1449   33.5479 C   0  0  0  0  0  0  0  0  0  0  0  0
    1.4591   -5.5548   32.8787 C   0  0  0  0  0  0  0  0  0  0  0  0
    1.4689   -5.6204   31.4269 C   0  0  0  0  0  0  0  0  0  0  0  0
    0.5109   -6.2725   30.7477 C   0  0  0  0  0  0  0  0  0  0  0  0
   -0.4640   -7.0147   31.4547 C   0  0  0  0  0  0  0  0  0  0  0  0
   -1.4067   -7.8317   31.0494 N   0  0  0  0  0  0  0  0  0  0  0  0
   -2.0546   -8.2866   32.1660 N   0  0  0  0  0  0  0  0  0  0  0  0
   -1.5015   -7.7289   33.2219 C   0  0  0  0  0  0  0  0  0  0  0  0
   -0.4707   -6.9220   32.8419 N   0  0  0  0  0  0  0  0  0  0  0  0
    0.5256   -6.0451   37.9972 H   0  0  0  0  0  0  0  0  0  0  0  0
    4.1814   -6.8680   37.4442 H   0  0  0  0  0  0  0  0  0  0  0  0
    5.3514   -8.5307   38.8157 H   0  0  0  0  0  0  0  0  0  0  0  0
    4.0953   -9.9713   40.3965 H   0  0  0  0  0  0  0  0  0  0  0  0
    1.6362   -9.7443   40.5874 H   0  0  0  0  0  0  0  0  0  0  0  0
    0.4342   -8.0922   39.2444 H   0  0  0  0  0  0  0  0  0  0  0  0
    2.9514   -5.2570   36.3333 H   0  0  0  0  0  0  0  0  0  0  0  0
    2.5738   -4.5431   37.8911 H   0  0  0  0  0  0  0  0  0  0  0  0
    1.8218   -3.4437   35.6030 H   0  0  0  0  0  0  0  0  0  0  0  0
    0.8310   -3.2924   37.0473 H   0  0  0  0  0  0  0  0  0  0  0  0
   -0.7445   -4.9112   36.3445 H   0  0  0  0  0  0  0  0  0  0  0  0
   -1.7308   -4.0271   34.7380 H   0  0  0  0  0  0  0  0  0  0  0  0
    0.3821   -1.9884   34.5158 H   0  0  0  0  0  0  0  0  0  0  0  0
   -0.8181   -2.0462   35.8011 H   0  0  0  0  0  0  0  0  0  0  0  0
   -2.6530   -1.8704   34.2694 H   0  0  0  0  0  0  0  0  0  0  0  0
   -1.5941   -0.5064   34.1683 H   0  0  0  0  0  0  0  0  0  0  0  0
   -2.8323   -1.7336   32.1321 H   0  0  0  0  0  0  0  0  0  0  0  0
   -2.0175   -0.1513   30.8059 H   0  0  0  0  0  0  0  0  0  0  0  0
   -1.2614    0.4505   32.2490 H   0  0  0  0  0  0  0  0  0  0  0  0
    1.1825   -0.8895   29.1962 H   0  0  0  0  0  0  0  0  0  0  0  0
   -0.3185   -1.7904   29.2819 H   0  0  0  0  0  0  0  0  0  0  0  0
   -1.6398   -0.9703   27.2086 H   0  0  0  0  0  0  0  0  0  0  0  0
   -2.4925    1.3081   26.2133 H   0  0  0  0  0  0  0  0  0  0  0  0
    0.2976    2.0465   29.6895 H   0  0  0  0  0  0  0  0  0  0  0  0
    1.9809   -1.3158   31.3287 H   0  0  0  0  0  0  0  0  0  0  0  0
    1.0312   -0.9629   32.7361 H   0  0  0  0  0  0  0  0  0  0  0  0
    0.8169   -3.2537   32.5550 H   0  0  0  0  0  0  0  0  0  0  0  0
    0.8114   -3.2571   30.7919 H   0  0  0  0  0  0  0  0  0  0  0  0
   -1.4365   -2.8364   30.5857 H   0  0  0  0  0  0  0  0  0  0  0  0
   -1.2833   -4.1738   33.0098 H   0  0  0  0  0  0  0  0  0  0  0  0
    2.2228   -4.9598   33.3680 H   0  0  0  0  0  0  0  0  0  0  0  0
    2.2399   -5.0663   30.8989 H   0  0  0  0  0  0  0  0  0  0  0  0
    0.4859   -6.2649   29.6707 H   0  0  0  0  0  0  0  0  0  0  0  0
   -1.8003   -7.8980   34.2443 H   0  0  0  0  0  0  0  0  0  0  0  0
  1  2  2  0
  2  3  2  0
  2  4  1  0
  4  5  1  0
  5  6  2  0
  6  7  1  0
  7  8  2  0
  8  9  1  0
  9 10  2  0
  4 11  1  0
 11 12  1  0
 12 13  1  0
 13 14  1  0
 14 15  1  0
 15 16  1  0
 16 17  1  0
 17 18  1  0
 18 19  1  0
 19 20  1  0
 20 21  1  0
 21 22  1  0
 22 23  2  0
 23 24  1  0
 24 25  1  0
 19 26  1  0
 26 27  1  0
 27 28  1  0
 28 29  1  0
 13 30  1  0
 30 31  1  0
 31 32  2  0
 32 33  1  0
 33 34  2  0
 34 35  1  0
 35 36  2  0
 36 37  1  0
 37 38  2  0
 38 39  1  0
 30  2  1  0
 39 31  1  0
 10  5  1  0
 28 17  1  0
 39 35  1  0
 25 21  2  0
  4 40  1  0
  6 41  1  0
  7 42  1  0
  8 43  1  0
  9 44  1  0
 10 45  1  0
 11 46  1  0
 11 47  1  0
 12 48  1  0
 12 49  1  0
 13 50  1  0
 14 51  1  0
 15 52  1  0
 15 53  1  0
 16 54  1  0
 16 55  1  0
 17 56  1  0
 18 57  1  0
 18 58  1  0
 20 59  1  0
 20 60  1  0
 22 61  1  0
 23 62  1  0
 25 63  1  0
 26 64  1  0
 26 65  1  0
 27 66  1  0
 27 67  1  0
 28 68  1  0
 29 69  1  0
 32 70  1  0
 33 71  1  0
 34 72  1  0
 38 73  1  0
M  END
>  <Energy>  (766) 
70.28109622581502

>  <compound_id>  (766) 
4354

>  <target_id>  (766) 
1

>  <reference_id>  (766) 
152

>  <inspiration_ids>  (766) 
[152, 187]

>  <energy_score>  (766) 
-68.08262734057647

>  <distance_score>  (766) 
1.777199077411841

>  <path>  (766) 
/opt/xchem-fragalysis-2/maxwin/BulkDock/SCRATCH/505735/C4354-P152/C4354-P152.minimised.mol

>  <scratch_subdir>  (766) 
/opt/xchem-fragalysis-2/maxwin/BulkDock/SCRATCH/505735/C4354-P152

>  <fragmenstein_runtime>  (766) 
13.693418025970459

>  <fragmenstein_outcome>  (766) 
too moved

>  <fragmenstein_mode>  (766) 
expansion

>  <fragmenstein_error>  (766) 


$$$$
C4354-P187
     RDKit          3D

 73 78  0  0  0  0  0  0  0  0999 V2000
   -0.4627   -7.8666   35.9755 O   0  0  0  0  0  0  0  0  0  0  0  0
    0.8559   -7.2791   35.9444 S   0  0  0  0  0  0  0  0  0  0  0  0
    1.9933   -7.9460   35.3371 O   0  0  0  0  0  0  0  0  0  0  0  0
    1.1843   -6.7212   37.6228 C   0  0  0  0  0  0  0  0  0  0  0  0
    2.2009   -7.5830   38.3225 C   0  0  0  0  0  0  0  0  0  0  0  0
    3.5716   -7.5270   38.0476 C   0  0  0  0  0  0  0  0  0  0  0  0
    4.4641   -8.3380   38.7533 C   0  0  0  0  0  0  0  0  0  0  0  0
    4.0015   -9.2001   39.7466 C   0  0  0  0  0  0  0  0  0  0  0  0
    2.6437   -9.2593   40.0347 C   0  0  0  0  0  0  0  0  0  0  0  0
    1.7509   -8.4612   39.3241 C   0  0  0  0  0  0  0  0  0  0  0  0
    1.4269   -5.2237   37.6776 C   0  0  0  0  0  0  0  0  0  0  0  0
    0.1612   -4.5055   37.2048 C   0  0  0  0  0  0  0  0  0  0  0  0
   -0.2856   -4.8547   35.7588 C   0  0  0  0  0  0  0  0  0  0  0  0
   -0.5802   -3.6285   35.0060 N   0  0  0  0  0  0  0  0  0  0  0  0
    0.5115   -2.6576   34.9222 C   0  0  0  0  0  0  0  0  0  0  0  0
    0.3003   -1.6480   33.7850 C   0  0  0  0  0  0  0  0  0  0  0  0
   -0.0455   -2.3245   32.4480 C   0  0  0  0  0  0  0  0  0  0  0  0
    0.5474   -1.5784   31.2514 C   0  0  0  0  0  0  0  0  0  0  0  0
    0.2939   -2.3303   30.0155 N   0  0  0  0  0  0  0  0  0  0  0  0
    0.7443   -1.6524   28.8014 C   0  0  0  0  0  0  0  0  0  0  0  0
    0.0161   -0.3664   28.5704 C   0  0  0  0  0  0  0  0  0  0  0  0
   -1.2176   -0.1992   27.8585 C   0  0  0  0  0  0  0  0  0  0  0  0
   -1.6111    1.1167   27.7827 C   0  0  0  0  0  0  0  0  0  0  0  0
   -0.5045    2.1548   28.5523 S   0  0  0  0  0  0  0  0  0  0  0  0
    0.4831    0.8537   29.0149 C   0  0  0  0  0  0  0  0  0  0  0  0
   -1.0710   -2.8509   29.8832 C   0  0  0  0  0  0  0  0  0  0  0  0
   -2.0312   -2.2159   30.8777 C   0  0  0  0  0  0  0  0  0  0  0  0
   -1.5625   -2.5114   32.2834 C   0  0  0  0  0  0  0  0  0  0  0  0
   -1.9018   -3.8804   32.5206 O   0  0  0  0  0  0  0  0  0  0  0  0
    0.6783   -5.7841   35.0991 N   0  0  0  0  0  0  0  0  0  0  0  0
    0.6347   -5.9910   33.6605 C   0  0  0  0  0  0  0  0  0  0  0  0
    1.6697   -5.3933   33.0349 C   0  0  0  0  0  0  0  0  0  0  0  0
    1.7414   -5.4041   31.5824 C   0  0  0  0  0  0  0  0  0  0  0  0
    0.8369   -6.0659   30.8422 C   0  0  0  0  0  0  0  0  0  0  0  0
   -0.1791   -6.8143   31.4853 C   0  0  0  0  0  0  0  0  0  0  0  0
   -1.0992   -7.6197   31.0008 N   0  0  0  0  0  0  0  0  0  0  0  0
   -1.8199   -8.0920   32.0588 N   0  0  0  0  0  0  0  0  0  0  0  0
   -1.3337   -7.5515   33.1583 C   0  0  0  0  0  0  0  0  0  0  0  0
   -0.2703   -6.7412   32.8787 N   0  0  0  0  0  0  0  0  0  0  0  0
    0.2239   -6.8842   38.1350 H   0  0  0  0  0  0  0  0  0  0  0  0
    3.9599   -6.8677   37.2748 H   0  0  0  0  0  0  0  0  0  0  0  0
    5.5267   -8.2977   38.5262 H   0  0  0  0  0  0  0  0  0  0  0  0
    4.7025   -9.8270   40.2913 H   0  0  0  0  0  0  0  0  0  0  0  0
    2.2752   -9.9348   40.8014 H   0  0  0  0  0  0  0  0  0  0  0  0
    0.6892   -8.5523   39.5518 H   0  0  0  0  0  0  0  0  0  0  0  0
    2.2872   -4.9269   37.0657 H   0  0  0  0  0  0  0  0  0  0  0  0
    1.6470   -4.9139   38.7067 H   0  0  0  0  0  0  0  0  0  0  0  0
    0.3088   -3.4338   37.3641 H   0  0  0  0  0  0  0  0  0  0  0  0
   -0.6709   -4.7516   37.8803 H   0  0  0  0  0  0  0  0  0  0  0  0
   -1.2445   -5.3857   35.8228 H   0  0  0  0  0  0  0  0  0  0  0  0
   -1.3950   -3.1789   35.4300 H   0  0  0  0  0  0  0  0  0  0  0  0
    1.4732   -3.1544   34.7659 H   0  0  0  0  0  0  0  0  0  0  0  0
    0.6021   -2.0847   35.8509 H   0  0  0  0  0  0  0  0  0  0  0  0
   -0.4746   -0.9240   34.0651 H   0  0  0  0  0  0  0  0  0  0  0  0
    1.2299   -1.0731   33.6859 H   0  0  0  0  0  0  0  0  0  0  0  0
    0.4265   -3.3019   32.4503 H   0  0  0  0  0  0  0  0  0  0  0  0
    0.1262   -0.5676   31.2346 H   0  0  0  0  0  0  0  0  0  0  0  0
    1.6314   -1.4759   31.3842 H   0  0  0  0  0  0  0  0  0  0  0  0
    1.8239   -1.4651   28.8683 H   0  0  0  0  0  0  0  0  0  0  0  0
    0.6229   -2.3214   27.9475 H   0  0  0  0  0  0  0  0  0  0  0  0
   -1.7839   -1.0029   27.4014 H   0  0  0  0  0  0  0  0  0  0  0  0
   -2.4897    1.5207   27.2966 H   0  0  0  0  0  0  0  0  0  0  0  0
    1.3891    1.0482   29.5719 H   0  0  0  0  0  0  0  0  0  0  0  0
   -1.4707   -2.7575   28.8700 H   0  0  0  0  0  0  0  0  0  0  0  0
   -1.0225   -3.9298   30.0606 H   0  0  0  0  0  0  0  0  0  0  0  0
   -3.0244   -2.6430   30.7588 H   0  0  0  0  0  0  0  0  0  0  0  0
   -2.1131   -1.1361   30.7096 H   0  0  0  0  0  0  0  0  0  0  0  0
   -2.1447   -1.9046   32.9855 H   0  0  0  0  0  0  0  0  0  0  0  0
   -1.7286   -4.0297   33.4772 H   0  0  0  0  0  0  0  0  0  0  0  0
    2.4342   -4.8394   33.5677 H   0  0  0  0  0  0  0  0  0  0  0  0
    2.5139   -4.8068   31.1070 H   0  0  0  0  0  0  0  0  0  0  0  0
    0.8634   -6.0347   29.7609 H   0  0  0  0  0  0  0  0  0  0  0  0
   -1.7206   -7.7358   34.1455 H   0  0  0  0  0  0  0  0  0  0  0  0
  1  2  2  0
  2  3  2  0
  2  4  1  0
  4  5  1  0
  5  6  2  0
  6  7  1  0
  7  8  2  0
  8  9  1  0
  9 10  2  0
  4 11  1  0
 11 12  1  0
 12 13  1  0
 13 14  1  0
 14 15  1  0
 15 16  1  0
 16 17  1  0
 17 18  1  0
 18 19  1  0
 19 20  1  0
 20 21  1  0
 21 22  1  0
 22 23  2  0
 23 24  1  0
 24 25  1  0
 19 26  1  0
 26 27  1  0
 27 28  1  0
 28 29  1  0
 13 30  1  0
 30 31  1  0
 31 32  2  0
 32 33  1  0
 33 34  2  0
 34 35  1  0
 35 36  2  0
 36 37  1  0
 37 38  2  0
 38 39  1  0
 30  2  1  0
 39 31  1  0
 10  5  1  0
 28 17  1  0
 39 35  1  0
 25 21  2  0
  4 40  1  0
  6 41  1  0
  7 42  1  0
  8 43  1  0
  9 44  1  0
 10 45  1  0
 11 46  1  0
 11 47  1  0
 12 48  1  0
 12 49  1  0
 13 50  1  0
 14 51  1  0
 15 52  1  0
 15 53  1  0
 16 54  1  0
 16 55  1  0
 17 56  1  0
 18 57  1  0
 18 58  1  0
 20 59  1  0
 20 60  1  0
 22 61  1  0
 23 62  1  0
 25 63  1  0
 26 64  1  0
 26 65  1  0
 27 66  1  0
 27 67  1  0
 28 68  1  0
 29 69  1  0
 32 70  1  0
 33 71  1  0
 34 72  1  0
 38 73  1  0
M  END
>  <Energy>  (767) 
53.037643442212683

>  <compound_id>  (767) 
4354

>  <target_id>  (767) 
1

>  <reference_id>  (767) 
187

>  <inspiration_ids>  (767) 
[152, 187]

>  <energy_score>  (767) 
-85.32608012417913

>  <distance_score>  (767) 
1.5148930759939283

>  <path>  (767) 
/opt/xchem-fragalysis-2/maxwin/BulkDock/SCRATCH/505735/C4354-P187/C4354-P187.minimised.mol

>  <scratch_subdir>  (767) 
/opt/xchem-fragalysis-2/maxwin/BulkDock/SCRATCH/505735/C4354-P187

>  <fragmenstein_runtime>  (767) 
9.55199146270752

>  <fragmenstein_outcome>  (767) 
too moved

>  <fragmenstein_mode>  (767) 
expansion

>  <fragmenstein_error>  (767) 


$$$$
C4327-P152
     RDKit          3D

 68 72  0  0  0  0  0  0  0  0999 V2000
   -0.1615    3.2534   28.0577 C   0  0  0  0  0  0  0  0  0  0  0  0
   -0.6013    1.9782   28.5448 N   0  0  0  0  0  0  0  0  0  0  0  0
    0.1733    0.8682   29.3047 C   0  0  0  0  0  0  0  0  0  0  0  0
    1.3040    0.7898   29.5815 O   0  0  0  0  0  0  0  0  0  0  0  0
   -0.8694   -0.1914   29.6639 C   0  0  0  0  0  0  0  0  0  0  0  0
   -0.2759   -1.4488   30.3224 C   0  0  0  0  0  0  0  0  0  0  0  0
    0.1933   -1.2407   31.7685 C   0  0  0  0  0  0  0  0  0  0  0  0
    0.7903   -2.5216   32.4660 C   0  0  0  0  0  0  0  0  0  0  0  0
    0.2183   -3.9069   32.0080 C   0  0  0  0  0  0  0  0  0  0  0  0
    1.1241   -4.4001   30.8202 C   0  0  0  0  0  0  0  0  0  0  0  0
    0.5767   -5.6292   30.1078 C   0  0  0  0  0  0  0  0  0  0  0  0
   -0.1464   -6.5959   30.9721 C   0  0  0  0  0  0  0  0  0  0  0  0
   -0.7997   -7.6523   30.5483 N   0  0  0  0  0  0  0  0  0  0  0  0
   -1.5090   -8.1407   31.5996 N   0  0  0  0  0  0  0  0  0  0  0  0
   -1.2876   -7.3798   32.6478 C   0  0  0  0  0  0  0  0  0  0  0  0
   -1.9198   -7.5506   33.8167 N   0  0  0  0  0  0  0  0  0  0  0  0
   -0.3724   -6.4104   32.3285 N   0  0  0  0  0  0  0  0  0  0  0  0
    0.2875   -5.2679   33.0189 C   0  0  0  0  0  0  0  0  0  0  0  0
    0.3720   -5.1911   34.5253 N   0  0  0  0  0  0  0  0  0  0  0  0
   -0.3749   -4.2055   35.2954 C   0  0  0  0  0  0  0  0  0  0  0  0
    0.5986   -3.5261   36.2883 C   0  0  0  0  0  0  0  0  0  0  0  0
    1.7362   -4.4169   36.8551 C   0  0  0  0  0  0  0  0  0  0  0  0
    1.2706   -5.8505   37.0462 C   0  0  0  0  0  0  0  0  0  0  0  0
    2.1044   -6.8367   37.8400 C   0  0  0  0  0  0  0  0  0  0  0  0
    3.5010   -6.8957   37.7757 C   0  0  0  0  0  0  0  0  0  0  0  0
    4.2083   -7.8478   38.5232 C   0  0  0  0  0  0  0  0  0  0  0  0
    3.5344   -8.7498   39.3454 C   0  0  0  0  0  0  0  0  0  0  0  0
    2.1482   -8.7068   39.4196 C   0  0  0  0  0  0  0  0  0  0  0  0
    1.4414   -7.7643   38.6706 C   0  0  0  0  0  0  0  0  0  0  0  0
    0.8645   -6.5786   35.4379 S   0  0  0  0  0  0  0  0  0  0  0  0
   -0.3047   -7.3905   35.7000 O   0  0  0  0  0  0  0  0  0  0  0  0
    2.0088   -7.1511   34.7597 O   0  0  0  0  0  0  0  0  0  0  0  0
   -1.2025   -3.5794   31.4749 C   0  0  0  0  0  0  0  0  0  0  0  0
   -1.3063   -2.5785   30.3034 C   0  0  0  0  0  0  0  0  0  0  0  0
    0.9247    3.3235   28.1458 H   0  0  0  0  0  0  0  0  0  0  0  0
   -0.4665    3.3506   27.0136 H   0  0  0  0  0  0  0  0  0  0  0  0
   -0.6356    4.0357   28.6530 H   0  0  0  0  0  0  0  0  0  0  0  0
   -1.5933    1.7647   28.5510 H   0  0  0  0  0  0  0  0  0  0  0  0
   -1.3656   -0.4827   28.7289 H   0  0  0  0  0  0  0  0  0  0  0  0
   -1.6192    0.2598   30.3229 H   0  0  0  0  0  0  0  0  0  0  0  0
    0.5923   -1.7459   29.7246 H   0  0  0  0  0  0  0  0  0  0  0  0
    0.9433   -0.4442   31.8272 H   0  0  0  0  0  0  0  0  0  0  0  0
   -0.6574   -0.8955   32.3722 H   0  0  0  0  0  0  0  0  0  0  0  0
    0.6459   -2.3884   33.5391 H   0  0  0  0  0  0  0  0  0  0  0  0
    1.8784   -2.5132   32.3213 H   0  0  0  0  0  0  0  0  0  0  0  0
    1.3010   -3.6251   30.0717 H   0  0  0  0  0  0  0  0  0  0  0  0
    2.1291   -4.6294   31.2025 H   0  0  0  0  0  0  0  0  0  0  0  0
   -0.1334   -5.2749   29.3561 H   0  0  0  0  0  0  0  0  0  0  0  0
    1.3885   -6.1321   29.5735 H   0  0  0  0  0  0  0  0  0  0  0  0
   -1.3998   -7.3759   34.6751 H   0  0  0  0  0  0  0  0  0  0  0  0
   -2.2828   -8.5030   33.9035 H   0  0  0  0  0  0  0  0  0  0  0  0
    1.3410   -5.5659   32.8688 H   0  0  0  0  0  0  0  0  0  0  0  0
   -1.1756   -4.7053   35.8520 H   0  0  0  0  0  0  0  0  0  0  0  0
   -0.8569   -3.4563   34.6654 H   0  0  0  0  0  0  0  0  0  0  0  0
    1.0655   -2.6587   35.8069 H   0  0  0  0  0  0  0  0  0  0  0  0
    0.0069   -3.1246   37.1205 H   0  0  0  0  0  0  0  0  0  0  0  0
    2.0833   -3.9886   37.8028 H   0  0  0  0  0  0  0  0  0  0  0  0
    2.5899   -4.3852   36.1661 H   0  0  0  0  0  0  0  0  0  0  0  0
    0.3045   -5.7774   37.5683 H   0  0  0  0  0  0  0  0  0  0  0  0
    4.0595   -6.2150   37.1374 H   0  0  0  0  0  0  0  0  0  0  0  0
    5.2933   -7.8868   38.4592 H   0  0  0  0  0  0  0  0  0  0  0  0
    4.0862   -9.4903   39.9180 H   0  0  0  0  0  0  0  0  0  0  0  0
    1.6106   -9.4240   40.0381 H   0  0  0  0  0  0  0  0  0  0  0  0
    0.3542   -7.7789   38.7356 H   0  0  0  0  0  0  0  0  0  0  0  0
   -1.8006   -3.1979   32.3124 H   0  0  0  0  0  0  0  0  0  0  0  0
   -1.6875   -4.4889   31.1507 H   0  0  0  0  0  0  0  0  0  0  0  0
   -2.3124   -2.1568   30.3517 H   0  0  0  0  0  0  0  0  0  0  0  0
   -1.2389   -3.1091   29.3465 H   0  0  0  0  0  0  0  0  0  0  0  0
  1  2  1  0
  2  3  1  0
  3  4  2  0
  3  5  1  0
  5  6  1  0
  6  7  1  0
  7  8  1  0
  8  9  1  0
  9 10  1  0
 10 11  1  0
 11 12  1  0
 12 13  2  0
 13 14  1  0
 14 15  2  0
 15 16  1  0
 15 17  1  0
 17 18  1  0
 18 19  1  0
 19 20  1  0
 20 21  1  0
 21 22  1  0
 22 23  1  0
 23 24  1  0
 24 25  2  0
 25 26  1  0
 26 27  2  0
 27 28  1  0
 28 29  2  0
 23 30  1  0
 30 31  2  0
 30 32  2  0
  9 33  1  0
 33 34  1  0
 34  6  1  0
 18  9  1  0
 30 19  1  0
 17 12  1  0
 29 24  1  0
  1 35  1  0
  1 36  1  0
  1 37  1  0
  2 38  1  0
  5 39  1  0
  5 40  1  0
  6 41  1  0
  7 42  1  0
  7 43  1  0
  8 44  1  0
  8 45  1  0
 10 46  1  0
 10 47  1  0
 11 48  1  0
 11 49  1  0
 16 50  1  0
 16 51  1  0
 18 52  1  0
 20 53  1  0
 20 54  1  0
 21 55  1  0
 21 56  1  0
 22 57  1  0
 22 58  1  0
 23 59  1  0
 25 60  1  0
 26 61  1  0
 27 62  1  0
 28 63  1  0
 29 64  1  0
 33 65  1  0
 33 66  1  0
 34 67  1  0
 34 68  1  0
M  END
>  <Energy>  (768) 
42.869932045177528

>  <compound_id>  (768) 
4327

>  <target_id>  (768) 
1

>  <reference_id>  (768) 
152

>  <inspiration_ids>  (768) 
[152, 188]

>  <energy_score>  (768) 
-62.08338872731372

>  <distance_score>  (768) 
1.9207257841942325

>  <path>  (768) 
/opt/xchem-fragalysis-2/maxwin/BulkDock/SCRATCH/505735/C4327-P152/C4327-P152.minimised.mol

>  <scratch_subdir>  (768) 
/opt/xchem-fragalysis-2/maxwin/BulkDock/SCRATCH/505735/C4327-P152

>  <fragmenstein_runtime>  (768) 
38.64603352546692

>  <fragmenstein_outcome>  (768) 
too moved

>  <fragmenstein_mode>  (768) 
expansion

>  <fragmenstein_error>  (768) 


$$$$
C4327-P188
     RDKit          3D

 68 72  0  0  0  0  0  0  0  0999 V2000
   -1.7491    2.4549   27.5945 C   0  0  0  0  0  0  0  0  0  0  0  0
   -0.9944    1.2891   27.9524 N   0  0  0  0  0  0  0  0  0  0  0  0
   -1.0522    0.4012   29.2292 C   0  0  0  0  0  0  0  0  0  0  0  0
   -1.6675    0.5302   30.2128 O   0  0  0  0  0  0  0  0  0  0  0  0
   -0.0350   -0.6896   28.9821 C   0  0  0  0  0  0  0  0  0  0  0  0
    0.0894   -1.8004   30.0203 C   0  0  0  0  0  0  0  0  0  0  0  0
    0.5779   -1.4247   31.4215 C   0  0  0  0  0  0  0  0  0  0  0  0
    0.9745   -2.6784   32.3085 C   0  0  0  0  0  0  0  0  0  0  0  0
    0.3216   -4.0480   31.9128 C   0  0  0  0  0  0  0  0  0  0  0  0
    1.1765   -4.7063   30.7645 C   0  0  0  0  0  0  0  0  0  0  0  0
    0.4725   -5.8950   30.1314 C   0  0  0  0  0  0  0  0  0  0  0  0
   -0.2988   -6.7418   31.0683 C   0  0  0  0  0  0  0  0  0  0  0  0
   -1.0799   -7.7400   30.7320 N   0  0  0  0  0  0  0  0  0  0  0  0
   -1.7364   -8.1304   31.8573 N   0  0  0  0  0  0  0  0  0  0  0  0
   -1.3452   -7.3781   32.8630 C   0  0  0  0  0  0  0  0  0  0  0  0
   -1.7802   -7.5238   34.1316 N   0  0  0  0  0  0  0  0  0  0  0  0
   -0.4277   -6.4683   32.4199 N   0  0  0  0  0  0  0  0  0  0  0  0
    0.3435   -5.3397   32.9970 C   0  0  0  0  0  0  0  0  0  0  0  0
    0.5148   -5.1281   34.4785 N   0  0  0  0  0  0  0  0  0  0  0  0
   -0.5376   -4.4271   35.2135 C   0  0  0  0  0  0  0  0  0  0  0  0
    0.1201   -3.6518   36.3803 C   0  0  0  0  0  0  0  0  0  0  0  0
    1.2935   -4.3560   37.1116 C   0  0  0  0  0  0  0  0  0  0  0  0
    1.1403   -5.8659   37.0726 C   0  0  0  0  0  0  0  0  0  0  0  0
    2.0161   -6.7385   37.9543 C   0  0  0  0  0  0  0  0  0  0  0  0
    3.4139   -6.6628   37.9733 C   0  0  0  0  0  0  0  0  0  0  0  0
    4.1662   -7.5334   38.7747 C   0  0  0  0  0  0  0  0  0  0  0  0
    3.5362   -8.4780   39.5829 C   0  0  0  0  0  0  0  0  0  0  0  0
    2.1501   -8.5596   39.5850 C   0  0  0  0  0  0  0  0  0  0  0  0
    1.4001   -7.7079   38.7705 C   0  0  0  0  0  0  0  0  0  0  0  0
    1.2569   -6.4381   35.3620 S   0  0  0  0  0  0  0  0  0  0  0  0
    0.4056   -7.5986   35.2958 O   0  0  0  0  0  0  0  0  0  0  0  0
    2.6180   -6.5421   34.8829 O   0  0  0  0  0  0  0  0  0  0  0  0
   -1.0986   -3.6278   31.3981 C   0  0  0  0  0  0  0  0  0  0  0  0
   -1.1312   -2.7125   30.1397 C   0  0  0  0  0  0  0  0  0  0  0  0
   -1.2234    2.9792   26.7934 H   0  0  0  0  0  0  0  0  0  0  0  0
   -1.8433    3.1037   28.4645 H   0  0  0  0  0  0  0  0  0  0  0  0
   -2.7314    2.1353   27.2419 H   0  0  0  0  0  0  0  0  0  0  0  0
   -0.2914    0.9271   27.3195 H   0  0  0  0  0  0  0  0  0  0  0  0
    0.9432   -0.2017   28.8764 H   0  0  0  0  0  0  0  0  0  0  0  0
   -0.2758   -1.1540   28.0171 H   0  0  0  0  0  0  0  0  0  0  0  0
    0.8976   -2.3771   29.5752 H   0  0  0  0  0  0  0  0  0  0  0  0
    1.4453   -0.7568   31.3614 H   0  0  0  0  0  0  0  0  0  0  0  0
   -0.2053   -0.8676   31.9505 H   0  0  0  0  0  0  0  0  0  0  0  0
    0.7158   -2.4369   33.3458 H   0  0  0  0  0  0  0  0  0  0  0  0
    2.0665   -2.7839   32.2893 H   0  0  0  0  0  0  0  0  0  0  0  0
    1.4759   -4.0385   29.9641 H   0  0  0  0  0  0  0  0  0  0  0  0
    2.1478   -5.0301   31.1659 H   0  0  0  0  0  0  0  0  0  0  0  0
   -0.2396   -5.4932   29.4098 H   0  0  0  0  0  0  0  0  0  0  0  0
    1.1996   -6.5003   29.5847 H   0  0  0  0  0  0  0  0  0  0  0  0
   -1.0082   -7.6443   34.7972 H   0  0  0  0  0  0  0  0  0  0  0  0
   -2.2304   -8.4440   34.2176 H   0  0  0  0  0  0  0  0  0  0  0  0
    1.3581   -5.7378   32.8265 H   0  0  0  0  0  0  0  0  0  0  0  0
   -1.2776   -5.1390   35.5924 H   0  0  0  0  0  0  0  0  0  0  0  0
   -1.0659   -3.7213   34.5668 H   0  0  0  0  0  0  0  0  0  0  0  0
    0.4892   -2.6879   36.0076 H   0  0  0  0  0  0  0  0  0  0  0  0
   -0.6645   -3.4128   37.1090 H   0  0  0  0  0  0  0  0  0  0  0  0
    1.3378   -3.9931   38.1453 H   0  0  0  0  0  0  0  0  0  0  0  0
    2.2379   -4.0599   36.6373 H   0  0  0  0  0  0  0  0  0  0  0  0
    0.0991   -6.0765   37.3584 H   0  0  0  0  0  0  0  0  0  0  0  0
    3.9389   -5.9429   37.3482 H   0  0  0  0  0  0  0  0  0  0  0  0
    5.2517   -7.4684   38.7658 H   0  0  0  0  0  0  0  0  0  0  0  0
    4.1260   -9.1466   40.2031 H   0  0  0  0  0  0  0  0  0  0  0  0
    1.6428   -9.3001   40.1968 H   0  0  0  0  0  0  0  0  0  0  0  0
    0.3182   -7.8370   38.7629 H   0  0  0  0  0  0  0  0  0  0  0  0
   -1.6131   -3.1045   32.2161 H   0  0  0  0  0  0  0  0  0  0  0  0
   -1.7123   -4.4993   31.2048 H   0  0  0  0  0  0  0  0  0  0  0  0
   -2.0465   -2.1182   30.1876 H   0  0  0  0  0  0  0  0  0  0  0  0
   -1.2069   -3.3293   29.2372 H   0  0  0  0  0  0  0  0  0  0  0  0
  1  2  1  0
  2  3  1  0
  3  4  2  0
  3  5  1  0
  5  6  1  0
  6  7  1  0
  7  8  1  0
  8  9  1  0
  9 10  1  0
 10 11  1  0
 11 12  1  0
 12 13  2  0
 13 14  1  0
 14 15  2  0
 15 16  1  0
 15 17  1  0
 17 18  1  0
 18 19  1  0
 19 20  1  0
 20 21  1  0
 21 22  1  0
 22 23  1  0
 23 24  1  0
 24 25  2  0
 25 26  1  0
 26 27  2  0
 27 28  1  0
 28 29  2  0
 23 30  1  0
 30 31  2  0
 30 32  2  0
  9 33  1  0
 33 34  1  0
 34  6  1  0
 18  9  1  0
 30 19  1  0
 17 12  1  0
 29 24  1  0
  1 35  1  0
  1 36  1  0
  1 37  1  0
  2 38  1  0
  5 39  1  0
  5 40  1  0
  6 41  1  0
  7 42  1  0
  7 43  1  0
  8 44  1  0
  8 45  1  0
 10 46  1  0
 10 47  1  0
 11 48  1  0
 11 49  1  0
 16 50  1  0
 16 51  1  0
 18 52  1  0
 20 53  1  0
 20 54  1  0
 21 55  1  0
 21 56  1  0
 22 57  1  0
 22 58  1  0
 23 59  1  0
 25 60  1  0
 26 61  1  0
 27 62  1  0
 28 63  1  0
 29 64  1  0
 33 65  1  0
 33 66  1  0
 34 67  1  0
 34 68  1  0
M  END
>  <Energy>  (769) 
43.761072253552008

>  <compound_id>  (769) 
4327

>  <target_id>  (769) 
1

>  <reference_id>  (769) 
188

>  <inspiration_ids>  (769) 
[152, 188]

>  <energy_score>  (769) 
-61.19224851893921

>  <distance_score>  (769) 
1.9585583761897047

>  <path>  (769) 
/opt/xchem-fragalysis-2/maxwin/BulkDock/SCRATCH/505735/C4327-P188/C4327-P188.minimised.mol

>  <scratch_subdir>  (769) 
/opt/xchem-fragalysis-2/maxwin/BulkDock/SCRATCH/505735/C4327-P188

>  <fragmenstein_runtime>  (769) 
39.85775685310364

>  <fragmenstein_outcome>  (769) 
too moved

>  <fragmenstein_mode>  (769) 
expansion

>  <fragmenstein_error>  (769) 


$$$$
C4328-P152
     RDKit          3D

 66 70  0  0  0  0  0  0  0  0999 V2000
   -1.8260   -0.2841   30.2147 C   0  0  0  0  0  0  0  0  0  0  0  0
   -1.5045   -1.4674   31.4792 S   0  0  0  0  0  0  0  0  0  0  0  0
   -1.4585   -0.8046   32.7613 O   0  0  0  0  0  0  0  0  0  0  0  0
   -2.3188   -2.6423   31.2559 O   0  0  0  0  0  0  0  0  0  0  0  0
    0.0709   -1.8349   31.0301 N   0  0  0  0  0  0  0  0  0  0  0  0
    0.8972   -2.6383   31.9109 C   0  0  0  0  0  0  0  0  0  0  0  0
    1.7331   -1.8773   32.9267 C   0  0  0  0  0  0  0  0  0  0  0  0
    2.3060   -2.8511   33.9774 C   0  0  0  0  0  0  0  0  0  0  0  0
    2.4156   -4.3128   33.4885 C   0  0  0  0  0  0  0  0  0  0  0  0
    1.0875   -4.8866   32.8701 C   0  0  0  0  0  0  0  0  0  0  0  0
    1.4233   -5.5105   31.4805 C   0  0  0  0  0  0  0  0  0  0  0  0
    0.2269   -6.0657   30.7260 C   0  0  0  0  0  0  0  0  0  0  0  0
   -0.6522   -6.8491   31.6185 C   0  0  0  0  0  0  0  0  0  0  0  0
   -1.4952   -7.7744   31.2366 N   0  0  0  0  0  0  0  0  0  0  0  0
   -2.0638   -8.2814   32.3627 N   0  0  0  0  0  0  0  0  0  0  0  0
   -1.5779   -7.6606   33.4147 C   0  0  0  0  0  0  0  0  0  0  0  0
   -1.9407   -7.9144   34.6860 N   0  0  0  0  0  0  0  0  0  0  0  0
   -0.6525   -6.7407   33.0047 N   0  0  0  0  0  0  0  0  0  0  0  0
    0.4672   -6.0780   33.6963 C   0  0  0  0  0  0  0  0  0  0  0  0
    0.5338   -5.8490   35.1604 N   0  0  0  0  0  0  0  0  0  0  0  0
   -0.5017   -5.0447   35.8301 C   0  0  0  0  0  0  0  0  0  0  0  0
    0.1075   -4.3685   37.0660 C   0  0  0  0  0  0  0  0  0  0  0  0
    0.6748   -5.3590   38.0921 C   0  0  0  0  0  0  0  0  0  0  0  0
    1.7908   -6.2348   37.5034 C   0  0  0  0  0  0  0  0  0  0  0  0
    2.3788   -7.2670   38.4421 C   0  0  0  0  0  0  0  0  0  0  0  0
    3.7672   -7.4828   38.4505 C   0  0  0  0  0  0  0  0  0  0  0  0
    4.3305   -8.4780   39.2515 C   0  0  0  0  0  0  0  0  0  0  0  0
    3.5167   -9.2725   40.0534 C   0  0  0  0  0  0  0  0  0  0  0  0
    2.1405   -9.0713   40.0568 C   0  0  0  0  0  0  0  0  0  0  0  0
    1.5743   -8.0767   39.2590 C   0  0  0  0  0  0  0  0  0  0  0  0
    1.1559   -7.1376   36.0769 S   0  0  0  0  0  0  0  0  0  0  0  0
    0.0057   -7.9261   36.4571 O   0  0  0  0  0  0  0  0  0  0  0  0
    2.2322   -7.7263   35.3029 O   0  0  0  0  0  0  0  0  0  0  0  0
    0.1177   -3.7432   32.6120 C   0  0  0  0  0  0  0  0  0  0  0  0
   -2.7977    0.1473   30.4293 H   0  0  0  0  0  0  0  0  0  0  0  0
   -1.0628    0.4951   30.2488 H   0  0  0  0  0  0  0  0  0  0  0  0
   -1.8257   -0.7831   29.2444 H   0  0  0  0  0  0  0  0  0  0  0  0
    0.0746   -2.1845   30.0666 H   0  0  0  0  0  0  0  0  0  0  0  0
    1.6261   -3.0489   31.2087 H   0  0  0  0  0  0  0  0  0  0  0  0
    2.5538   -1.3625   32.4118 H   0  0  0  0  0  0  0  0  0  0  0  0
    1.1535   -1.0964   33.4314 H   0  0  0  0  0  0  0  0  0  0  0  0
    3.2876   -2.4951   34.3105 H   0  0  0  0  0  0  0  0  0  0  0  0
    1.6586   -2.8248   34.8595 H   0  0  0  0  0  0  0  0  0  0  0  0
    2.7750   -4.9400   34.3112 H   0  0  0  0  0  0  0  0  0  0  0  0
    3.2177   -4.3409   32.7391 H   0  0  0  0  0  0  0  0  0  0  0  0
    2.0716   -6.3328   31.7104 H   0  0  0  0  0  0  0  0  0  0  0  0
    2.0128   -4.8768   30.8135 H   0  0  0  0  0  0  0  0  0  0  0  0
    0.5879   -6.7131   29.9222 H   0  0  0  0  0  0  0  0  0  0  0  0
   -0.3382   -5.2606   30.2468 H   0  0  0  0  0  0  0  0  0  0  0  0
   -1.2267   -7.8402   35.4131 H   0  0  0  0  0  0  0  0  0  0  0  0
   -2.2767   -8.8835   34.7705 H   0  0  0  0  0  0  0  0  0  0  0  0
    1.2204   -6.8537   33.5391 H   0  0  0  0  0  0  0  0  0  0  0  0
   -1.3528   -5.6655   36.1183 H   0  0  0  0  0  0  0  0  0  0  0  0
   -0.8838   -4.2674   35.1756 H   0  0  0  0  0  0  0  0  0  0  0  0
   -0.6659   -3.7614   37.5514 H   0  0  0  0  0  0  0  0  0  0  0  0
    0.9044   -3.6815   36.7630 H   0  0  0  0  0  0  0  0  0  0  0  0
   -0.1548   -5.9699   38.4674 H   0  0  0  0  0  0  0  0  0  0  0  0
    1.0650   -4.8003   38.9516 H   0  0  0  0  0  0  0  0  0  0  0  0
    2.5906   -5.5882   37.1203 H   0  0  0  0  0  0  0  0  0  0  0  0
    4.4266   -6.8898   37.8201 H   0  0  0  0  0  0  0  0  0  0  0  0
    5.4052   -8.6409   39.2435 H   0  0  0  0  0  0  0  0  0  0  0  0
    3.9485  -10.0588   40.6670 H   0  0  0  0  0  0  0  0  0  0  0  0
    1.4983   -9.7163   40.6548 H   0  0  0  0  0  0  0  0  0  0  0  0
    0.4899   -7.9878   39.2611 H   0  0  0  0  0  0  0  0  0  0  0  0
   -0.7263   -4.1008   32.0264 H   0  0  0  0  0  0  0  0  0  0  0  0
   -0.3170   -3.3460   33.5308 H   0  0  0  0  0  0  0  0  0  0  0  0
  1  2  1  0
  2  3  2  0
  2  4  2  0
  2  5  1  0
  5  6  1  0
  6  7  1  0
  7  8  1  0
  8  9  1  0
  9 10  1  0
 10 11  1  0
 11 12  1  0
 12 13  1  0
 13 14  2  0
 14 15  1  0
 15 16  2  0
 16 17  1  0
 16 18  1  0
 18 19  1  0
 19 20  1  0
 20 21  1  0
 21 22  1  0
 22 23  1  0
 23 24  1  0
 24 25  1  0
 25 26  2  0
 26 27  1  0
 27 28  2  0
 28 29  1  0
 29 30  2  0
 24 31  1  0
 31 32  2  0
 31 33  2  0
 10 34  1  0
 34  6  1  0
 19 10  1  0
 31 20  1  0
 18 13  1  0
 30 25  1  0
  1 35  1  0
  1 36  1  0
  1 37  1  0
  5 38  1  0
  6 39  1  0
  7 40  1  0
  7 41  1  0
  8 42  1  0
  8 43  1  0
  9 44  1  0
  9 45  1  0
 11 46  1  0
 11 47  1  0
 12 48  1  0
 12 49  1  0
 17 50  1  0
 17 51  1  0
 19 52  1  0
 21 53  1  0
 21 54  1  0
 22 55  1  0
 22 56  1  0
 23 57  1  0
 23 58  1  0
 24 59  1  0
 26 60  1  0
 27 61  1  0
 28 62  1  0
 29 63  1  0
 30 64  1  0
 34 65  1  0
 34 66  1  0
M  END
>  <Energy>  (770) 
-43.851374303637634

>  <compound_id>  (770) 
4328

>  <target_id>  (770) 
1

>  <reference_id>  (770) 
152

>  <inspiration_ids>  (770) 
[152, 189]

>  <energy_score>  (770) 
-73.91762197963136

>  <distance_score>  (770) 
0.8197096428661795

>  <path>  (770) 
/opt/xchem-fragalysis-2/maxwin/BulkDock/SCRATCH/505735/C4328-P152/C4328-P152.minimised.mol

>  <scratch_subdir>  (770) 
/opt/xchem-fragalysis-2/maxwin/BulkDock/SCRATCH/505735/C4328-P152

>  <fragmenstein_runtime>  (770) 
15.339557409286499

>  <fragmenstein_outcome>  (770) 
acceptable

>  <fragmenstein_mode>  (770) 
expansion

>  <fragmenstein_error>  (770) 


$$$$
C4328-P189
     RDKit          3D

 66 70  0  0  0  0  0  0  0  0999 V2000
   -2.0670   -0.2629   30.3864 C   0  0  0  0  0  0  0  0  0  0  0  0
   -1.6003   -1.5619   31.4931 S   0  0  0  0  0  0  0  0  0  0  0  0
   -1.3926   -1.0101   32.8117 O   0  0  0  0  0  0  0  0  0  0  0  0
   -2.4437   -2.7170   31.2752 O   0  0  0  0  0  0  0  0  0  0  0  0
   -0.0912   -1.9159   30.8348 N   0  0  0  0  0  0  0  0  0  0  0  0
    0.8497   -2.7238   31.6055 C   0  0  0  0  0  0  0  0  0  0  0  0
    1.7358   -1.9281   32.5584 C   0  0  0  0  0  0  0  0  0  0  0  0
    2.2619   -2.8051   33.7071 C   0  0  0  0  0  0  0  0  0  0  0  0
    2.4649   -4.2794   33.3172 C   0  0  0  0  0  0  0  0  0  0  0  0
    1.2046   -4.9450   32.6650 C   0  0  0  0  0  0  0  0  0  0  0  0
    1.6565   -5.5939   31.3207 C   0  0  0  0  0  0  0  0  0  0  0  0
    0.5193   -6.2303   30.5303 C   0  0  0  0  0  0  0  0  0  0  0  0
   -0.4092   -6.9864   31.4001 C   0  0  0  0  0  0  0  0  0  0  0  0
   -1.2833   -7.8785   31.0034 N   0  0  0  0  0  0  0  0  0  0  0  0
   -1.9031   -8.3481   32.1203 N   0  0  0  0  0  0  0  0  0  0  0  0
   -1.4230   -7.7281   33.1772 C   0  0  0  0  0  0  0  0  0  0  0  0
   -1.8117   -7.9549   34.4451 N   0  0  0  0  0  0  0  0  0  0  0  0
   -0.4590   -6.8492   32.7808 N   0  0  0  0  0  0  0  0  0  0  0  0
    0.6185   -6.1515   33.5010 C   0  0  0  0  0  0  0  0  0  0  0  0
    0.6051   -5.8896   34.9641 N   0  0  0  0  0  0  0  0  0  0  0  0
   -0.4809   -5.0998   35.5783 C   0  0  0  0  0  0  0  0  0  0  0  0
    0.0810   -4.3669   36.8064 C   0  0  0  0  0  0  0  0  0  0  0  0
    0.6320   -5.3135   37.8855 C   0  0  0  0  0  0  0  0  0  0  0  0
    1.7805   -6.1922   37.3653 C   0  0  0  0  0  0  0  0  0  0  0  0
    2.3508   -7.1917   38.3517 C   0  0  0  0  0  0  0  0  0  0  0  0
    3.7403   -7.3956   38.4043 C   0  0  0  0  0  0  0  0  0  0  0  0
    4.2898   -8.3675   39.2434 C   0  0  0  0  0  0  0  0  0  0  0  0
    3.4612   -9.1508   40.0410 C   0  0  0  0  0  0  0  0  0  0  0  0
    2.0839   -8.9611   40.0017 C   0  0  0  0  0  0  0  0  0  0  0  0
    1.5317   -7.9893   39.1657 C   0  0  0  0  0  0  0  0  0  0  0  0
    1.2118   -7.1444   35.9411 S   0  0  0  0  0  0  0  0  0  0  0  0
    0.0569   -7.9367   36.3015 O   0  0  0  0  0  0  0  0  0  0  0  0
    2.3266   -7.7388   35.2284 O   0  0  0  0  0  0  0  0  0  0  0  0
    0.1631   -3.8728   32.3339 C   0  0  0  0  0  0  0  0  0  0  0  0
   -1.3090    0.5222   30.4189 H   0  0  0  0  0  0  0  0  0  0  0  0
   -2.1701   -0.6651   29.3773 H   0  0  0  0  0  0  0  0  0  0  0  0
   -3.0167    0.1410   30.7357 H   0  0  0  0  0  0  0  0  0  0  0  0
   -0.2230   -2.2781   29.8844 H   0  0  0  0  0  0  0  0  0  0  0  0
    1.5151   -3.1102   30.8290 H   0  0  0  0  0  0  0  0  0  0  0  0
    2.5839   -1.5181   31.9952 H   0  0  0  0  0  0  0  0  0  0  0  0
    1.2143   -1.0622   32.9803 H   0  0  0  0  0  0  0  0  0  0  0  0
    3.2021   -2.3871   34.0850 H   0  0  0  0  0  0  0  0  0  0  0  0
    1.5509   -2.7537   34.5385 H   0  0  0  0  0  0  0  0  0  0  0  0
    2.7990   -4.8386   34.1978 H   0  0  0  0  0  0  0  0  0  0  0  0
    3.3128   -4.3155   32.6203 H   0  0  0  0  0  0  0  0  0  0  0  0
    2.3711   -6.3600   31.5938 H   0  0  0  0  0  0  0  0  0  0  0  0
    2.2217   -4.9244   30.6660 H   0  0  0  0  0  0  0  0  0  0  0  0
    0.9430   -6.9040   29.7808 H   0  0  0  0  0  0  0  0  0  0  0  0
   -0.0380   -5.4638   29.9814 H   0  0  0  0  0  0  0  0  0  0  0  0
   -1.1200   -7.8584   35.1899 H   0  0  0  0  0  0  0  0  0  0  0  0
   -2.1444   -8.9212   34.5443 H   0  0  0  0  0  0  0  0  0  0  0  0
    1.4054   -6.9068   33.3858 H   0  0  0  0  0  0  0  0  0  0  0  0
   -1.3161   -5.7397   35.8754 H   0  0  0  0  0  0  0  0  0  0  0  0
   -0.8871   -4.3673   34.8861 H   0  0  0  0  0  0  0  0  0  0  0  0
   -0.7158   -3.7561   37.2468 H   0  0  0  0  0  0  0  0  0  0  0  0
    0.8767   -3.6792   36.4998 H   0  0  0  0  0  0  0  0  0  0  0  0
   -0.1995   -5.9252   38.2555 H   0  0  0  0  0  0  0  0  0  0  0  0
    0.9854   -4.7191   38.7368 H   0  0  0  0  0  0  0  0  0  0  0  0
    2.5851   -5.5451   36.9931 H   0  0  0  0  0  0  0  0  0  0  0  0
    4.4121   -6.8124   37.7777 H   0  0  0  0  0  0  0  0  0  0  0  0
    5.3657   -8.5204   39.2679 H   0  0  0  0  0  0  0  0  0  0  0  0
    3.8830   -9.9181   40.6843 H   0  0  0  0  0  0  0  0  0  0  0  0
    1.4290   -9.5976   40.5946 H   0  0  0  0  0  0  0  0  0  0  0  0
    0.4470   -7.9121   39.1330 H   0  0  0  0  0  0  0  0  0  0  0  0
   -0.6500   -4.2883   31.7363 H   0  0  0  0  0  0  0  0  0  0  0  0
   -0.3111   -3.4861   33.2366 H   0  0  0  0  0  0  0  0  0  0  0  0
  1  2  1  0
  2  3  2  0
  2  4  2  0
  2  5  1  0
  5  6  1  0
  6  7  1  0
  7  8  1  0
  8  9  1  0
  9 10  1  0
 10 11  1  0
 11 12  1  0
 12 13  1  0
 13 14  2  0
 14 15  1  0
 15 16  2  0
 16 17  1  0
 16 18  1  0
 18 19  1  0
 19 20  1  0
 20 21  1  0
 21 22  1  0
 22 23  1  0
 23 24  1  0
 24 25  1  0
 25 26  2  0
 26 27  1  0
 27 28  2  0
 28 29  1  0
 29 30  2  0
 24 31  1  0
 31 32  2  0
 31 33  2  0
 10 34  1  0
 34  6  1  0
 19 10  1  0
 31 20  1  0
 18 13  1  0
 30 25  1  0
  1 35  1  0
  1 36  1  0
  1 37  1  0
  5 38  1  0
  6 39  1  0
  7 40  1  0
  7 41  1  0
  8 42  1  0
  8 43  1  0
  9 44  1  0
  9 45  1  0
 11 46  1  0
 11 47  1  0
 12 48  1  0
 12 49  1  0
 17 50  1  0
 17 51  1  0
 19 52  1  0
 21 53  1  0
 21 54  1  0
 22 55  1  0
 22 56  1  0
 23 57  1  0
 23 58  1  0
 24 59  1  0
 26 60  1  0
 27 61  1  0
 28 62  1  0
 29 63  1  0
 30 64  1  0
 34 65  1  0
 34 66  1  0
M  END
>  <Energy>  (771) 
-51.089933032322342

>  <compound_id>  (771) 
4328

>  <target_id>  (771) 
1

>  <reference_id>  (771) 
189

>  <inspiration_ids>  (771) 
[152, 189]

>  <energy_score>  (771) 
-81.15618070832075

>  <distance_score>  (771) 
0.9199592918260676

>  <path>  (771) 
/opt/xchem-fragalysis-2/maxwin/BulkDock/SCRATCH/505735/C4328-P189/C4328-P189.minimised.mol

>  <scratch_subdir>  (771) 
/opt/xchem-fragalysis-2/maxwin/BulkDock/SCRATCH/505735/C4328-P189

>  <fragmenstein_runtime>  (771) 
15.323241710662842

>  <fragmenstein_outcome>  (771) 
acceptable

>  <fragmenstein_mode>  (771) 
expansion

>  <fragmenstein_error>  (771) 


$$$$
C3760-P152
     RDKit          3D

 61 65  0  0  0  0  0  0  0  0999 V2000
    0.1234   -1.0957   32.0532 C   0  0  0  0  0  0  0  0  0  0  0  0
    1.4624   -1.7340   31.7574 N   0  0  0  0  0  0  0  0  0  0  0  0
    1.7797   -0.3200   31.2477 C   0  0  0  0  0  0  0  0  0  0  0  0
    1.0168    0.3707   30.1002 C   0  0  0  0  0  0  0  0  0  0  0  0
    0.5320   -0.3084   28.9713 C   0  0  0  0  0  0  0  0  0  0  0  0
   -0.2653    0.3330   28.0200 C   0  0  0  0  0  0  0  0  0  0  0  0
   -0.5247    1.6911   28.1326 C   0  0  0  0  0  0  0  0  0  0  0  0
    0.0238    2.4057   29.1927 C   0  0  0  0  0  0  0  0  0  0  0  0
    0.7780    1.7522   30.1747 C   0  0  0  0  0  0  0  0  0  0  0  0
    1.2715   -2.9884   31.0239 C   0  0  0  0  0  0  0  0  0  0  0  0
    1.2292   -3.1900   29.8679 O   0  0  0  0  0  0  0  0  0  0  0  0
    1.0492   -3.9048   32.1616 N   0  0  0  0  0  0  0  0  0  0  0  0
    0.6446   -5.2098   32.1894 C   0  0  0  0  0  0  0  0  0  0  0  0
    0.4531   -5.8381   30.8783 C   0  0  0  0  0  0  0  0  0  0  0  0
   -0.2956   -6.9330   30.7103 C   0  0  0  0  0  0  0  0  0  0  0  0
   -0.9487   -7.4798   31.8198 C   0  0  0  0  0  0  0  0  0  0  0  0
   -1.8463   -8.4239   31.8932 N   0  0  0  0  0  0  0  0  0  0  0  0
   -2.2351   -8.4912   33.1960 N   0  0  0  0  0  0  0  0  0  0  0  0
   -1.5303   -7.6309   33.8885 C   0  0  0  0  0  0  0  0  0  0  0  0
   -0.6678   -6.9601   33.0744 N   0  0  0  0  0  0  0  0  0  0  0  0
    0.1991   -5.8709   33.2873 C   0  0  0  0  0  0  0  0  0  0  0  0
    0.6513   -5.3874   34.5775 N   0  0  0  0  0  0  0  0  0  0  0  0
   -0.1981   -4.4313   35.3304 C   0  0  0  0  0  0  0  0  0  0  0  0
    0.6695   -3.7190   36.3748 C   0  0  0  0  0  0  0  0  0  0  0  0
    1.2750   -4.6679   37.4208 C   0  0  0  0  0  0  0  0  0  0  0  0
    2.1788   -5.7434   36.7951 C   0  0  0  0  0  0  0  0  0  0  0  0
    2.7545   -6.7411   37.7873 C   0  0  0  0  0  0  0  0  0  0  0  0
    4.1279   -7.0328   37.7596 C   0  0  0  0  0  0  0  0  0  0  0  0
    4.6727   -7.9941   38.6155 C   0  0  0  0  0  0  0  0  0  0  0  0
    3.8548   -8.6836   39.5068 C   0  0  0  0  0  0  0  0  0  0  0  0
    2.4927   -8.4066   39.5507 C   0  0  0  0  0  0  0  0  0  0  0  0
    1.9484   -7.4364   38.7068 C   0  0  0  0  0  0  0  0  0  0  0  0
    1.2382   -6.6884   35.5760 S   0  0  0  0  0  0  0  0  0  0  0  0
    0.0937   -7.2758   36.2378 O   0  0  0  0  0  0  0  0  0  0  0  0
    2.1107   -7.4979   34.7458 O   0  0  0  0  0  0  0  0  0  0  0  0
   -0.3733   -1.8122   32.7262 H   0  0  0  0  0  0  0  0  0  0  0  0
    0.1227   -0.1826   32.6688 H   0  0  0  0  0  0  0  0  0  0  0  0
   -0.5695   -1.0837   31.2031 H   0  0  0  0  0  0  0  0  0  0  0  0
    2.7854   -0.4609   30.8222 H   0  0  0  0  0  0  0  0  0  0  0  0
    1.9647    0.3537   32.1012 H   0  0  0  0  0  0  0  0  0  0  0  0
    0.7272   -1.3598   28.8076 H   0  0  0  0  0  0  0  0  0  0  0  0
   -0.6838   -0.2387   27.1940 H   0  0  0  0  0  0  0  0  0  0  0  0
   -1.1477    2.1947   27.3974 H   0  0  0  0  0  0  0  0  0  0  0  0
   -0.1646    3.4751   29.2732 H   0  0  0  0  0  0  0  0  0  0  0  0
    1.1633    2.3396   31.0055 H   0  0  0  0  0  0  0  0  0  0  0  0
    1.2466   -3.4167   33.0247 H   0  0  0  0  0  0  0  0  0  0  0  0
    0.9596   -5.4320   30.0092 H   0  0  0  0  0  0  0  0  0  0  0  0
   -0.4436   -7.4071   29.7543 H   0  0  0  0  0  0  0  0  0  0  0  0
   -1.6736   -7.4417   34.9372 H   0  0  0  0  0  0  0  0  0  0  0  0
   -0.6061   -3.6816   34.6438 H   0  0  0  0  0  0  0  0  0  0  0  0
   -1.0431   -4.9429   35.8024 H   0  0  0  0  0  0  0  0  0  0  0  0
    0.0577   -2.9697   36.8905 H   0  0  0  0  0  0  0  0  0  0  0  0
    1.4798   -3.1773   35.8705 H   0  0  0  0  0  0  0  0  0  0  0  0
    0.4516   -5.1225   37.9850 H   0  0  0  0  0  0  0  0  0  0  0  0
    1.8568   -4.0798   38.1412 H   0  0  0  0  0  0  0  0  0  0  0  0
    2.9910   -5.2597   36.2382 H   0  0  0  0  0  0  0  0  0  0  0  0
    4.7910   -6.5273   37.0605 H   0  0  0  0  0  0  0  0  0  0  0  0
    5.7366   -8.2153   38.5782 H   0  0  0  0  0  0  0  0  0  0  0  0
    4.2739   -9.4434   40.1614 H   0  0  0  0  0  0  0  0  0  0  0  0
    1.8453   -8.9627   40.2268 H   0  0  0  0  0  0  0  0  0  0  0  0
    0.8736   -7.2705   38.7591 H   0  0  0  0  0  0  0  0  0  0  0  0
  1  2  1  0
  2  3  1  0
  3  4  1  0
  4  5  2  0
  5  6  1  0
  6  7  2  0
  7  8  1  0
  8  9  2  0
  2 10  1  0
 10 11  2  0
 10 12  1  0
 12 13  1  0
 13 14  1  0
 14 15  2  0
 15 16  1  0
 16 17  2  0
 17 18  1  0
 18 19  2  0
 19 20  1  0
 20 21  1  0
 21 22  1  0
 22 23  1  0
 23 24  1  0
 24 25  1  0
 25 26  1  0
 26 27  1  0
 27 28  2  0
 28 29  1  0
 29 30  2  0
 30 31  1  0
 31 32  2  0
 26 33  1  0
 33 34  2  0
 33 35  2  0
  9  4  1  0
 21 13  2  0
 33 22  1  0
 20 16  1  0
 32 27  1  0
  1 36  1  0
  1 37  1  0
  1 38  1  0
  3 39  1  0
  3 40  1  0
  5 41  1  0
  6 42  1  0
  7 43  1  0
  8 44  1  0
  9 45  1  0
 12 46  1  0
 14 47  1  0
 15 48  1  0
 19 49  1  0
 23 50  1  0
 23 51  1  0
 24 52  1  0
 24 53  1  0
 25 54  1  0
 25 55  1  0
 26 56  1  0
 28 57  1  0
 29 58  1  0
 30 59  1  0
 31 60  1  0
 32 61  1  0
M  END
>  <Energy>  (772) 
109.04647978866129

>  <compound_id>  (772) 
3760

>  <target_id>  (772) 
1

>  <reference_id>  (772) 
152

>  <inspiration_ids>  (772) 
[152, 198]

>  <energy_score>  (772) 
21.243060102234097

>  <distance_score>  (772) 
1.5588997979961443

>  <path>  (772) 
/opt/xchem-fragalysis-2/maxwin/BulkDock/SCRATCH/505735/C3760-P152/C3760-P152.minimised.mol

>  <scratch_subdir>  (772) 
/opt/xchem-fragalysis-2/maxwin/BulkDock/SCRATCH/505735/C3760-P152

>  <fragmenstein_runtime>  (772) 
31.69639539718628

>  <fragmenstein_outcome>  (772) 
too moved

>  <fragmenstein_mode>  (772) 
expansion

>  <fragmenstein_error>  (772) 


$$$$
C3760-P198
     RDKit          3D

 61 65  0  0  0  0  0  0  0  0999 V2000
   -0.1814   -0.9517   32.2137 C   0  0  0  0  0  0  0  0  0  0  0  0
    1.2667   -1.3706   32.0525 N   0  0  0  0  0  0  0  0  0  0  0  0
    1.4237    0.1004   31.6707 C   0  0  0  0  0  0  0  0  0  0  0  0
    0.7794    0.7543   30.4299 C   0  0  0  0  0  0  0  0  0  0  0  0
    0.3227    0.0569   29.2977 C   0  0  0  0  0  0  0  0  0  0  0  0
   -0.3039    0.7078   28.2312 C   0  0  0  0  0  0  0  0  0  0  0  0
   -0.4373    2.0876   28.2457 C   0  0  0  0  0  0  0  0  0  0  0  0
    0.0700    2.8119   29.3201 C   0  0  0  0  0  0  0  0  0  0  0  0
    0.6675    2.1540   30.4030 C   0  0  0  0  0  0  0  0  0  0  0  0
    1.3537   -2.5805   31.2302 C   0  0  0  0  0  0  0  0  0  0  0  0
    1.4771   -2.6979   30.0687 O   0  0  0  0  0  0  0  0  0  0  0  0
    1.1410   -3.6042   32.2764 N   0  0  0  0  0  0  0  0  0  0  0  0
    0.9379   -4.9502   32.1759 C   0  0  0  0  0  0  0  0  0  0  0  0
    1.1245   -5.4965   30.8365 C   0  0  0  0  0  0  0  0  0  0  0  0
    0.5054   -6.6078   30.4309 C   0  0  0  0  0  0  0  0  0  0  0  0
   -0.3654   -7.2673   31.3087 C   0  0  0  0  0  0  0  0  0  0  0  0
   -1.2188   -8.2411   31.1126 N   0  0  0  0  0  0  0  0  0  0  0  0
   -1.8183   -8.4814   32.3104 N   0  0  0  0  0  0  0  0  0  0  0  0
   -1.2967   -7.6763   33.2100 C   0  0  0  0  0  0  0  0  0  0  0  0
   -0.3662   -6.8612   32.6376 N   0  0  0  0  0  0  0  0  0  0  0  0
    0.3461   -5.7375   33.1055 C   0  0  0  0  0  0  0  0  0  0  0  0
    0.5229   -5.3493   34.4828 N   0  0  0  0  0  0  0  0  0  0  0  0
   -0.5203   -4.5629   35.1786 C   0  0  0  0  0  0  0  0  0  0  0  0
    0.1195   -3.8541   36.3779 C   0  0  0  0  0  0  0  0  0  0  0  0
    0.7128   -4.8201   37.4155 C   0  0  0  0  0  0  0  0  0  0  0  0
    1.8042   -5.7297   36.8251 C   0  0  0  0  0  0  0  0  0  0  0  0
    2.4054   -6.7150   37.8111 C   0  0  0  0  0  0  0  0  0  0  0  0
    3.8020   -6.8268   37.9149 C   0  0  0  0  0  0  0  0  0  0  0  0
    4.3842   -7.7476   38.7901 C   0  0  0  0  0  0  0  0  0  0  0  0
    3.5819   -8.5728   39.5728 C   0  0  0  0  0  0  0  0  0  0  0  0
    2.1973   -8.4760   39.4829 C   0  0  0  0  0  0  0  0  0  0  0  0
    1.6129   -7.5536   38.6123 C   0  0  0  0  0  0  0  0  0  0  0  0
    1.1239   -6.6731   35.4427 S   0  0  0  0  0  0  0  0  0  0  0  0
   -0.0327   -7.4160   35.8977 O   0  0  0  0  0  0  0  0  0  0  0  0
    2.1725   -7.3220   34.6763 O   0  0  0  0  0  0  0  0  0  0  0  0
   -0.6408   -1.7770   32.7797 H   0  0  0  0  0  0  0  0  0  0  0  0
   -0.3918   -0.0943   32.8719 H   0  0  0  0  0  0  0  0  0  0  0  0
   -0.7708   -0.9736   31.2912 H   0  0  0  0  0  0  0  0  0  0  0  0
    2.4957    0.1341   31.4187 H   0  0  0  0  0  0  0  0  0  0  0  0
    1.3649    0.7423   32.5663 H   0  0  0  0  0  0  0  0  0  0  0  0
    0.4026   -1.0181   29.2100 H   0  0  0  0  0  0  0  0  0  0  0  0
   -0.6868    0.1271   27.3935 H   0  0  0  0  0  0  0  0  0  0  0  0
   -0.9324    2.6010   27.4251 H   0  0  0  0  0  0  0  0  0  0  0  0
   -0.0267    3.8965   29.3281 H   0  0  0  0  0  0  0  0  0  0  0  0
    1.0384    2.7558   31.2302 H   0  0  0  0  0  0  0  0  0  0  0  0
    0.9955   -3.1457   33.1646 H   0  0  0  0  0  0  0  0  0  0  0  0
    1.8317   -5.0175   30.1648 H   0  0  0  0  0  0  0  0  0  0  0  0
    0.7059   -7.0325   29.4660 H   0  0  0  0  0  0  0  0  0  0  0  0
   -1.6037   -7.6322   34.2420 H   0  0  0  0  0  0  0  0  0  0  0  0
   -0.9292   -3.8082   34.4983 H   0  0  0  0  0  0  0  0  0  0  0  0
   -1.3456   -5.2064   35.4980 H   0  0  0  0  0  0  0  0  0  0  0  0
   -0.6389   -3.2317   36.8671 H   0  0  0  0  0  0  0  0  0  0  0  0
    0.9088   -3.1781   36.0255 H   0  0  0  0  0  0  0  0  0  0  0  0
   -0.1079   -5.4123   37.8386 H   0  0  0  0  0  0  0  0  0  0  0  0
    1.1343   -4.2370   38.2436 H   0  0  0  0  0  0  0  0  0  0  0  0
    2.5999   -5.1074   36.3960 H   0  0  0  0  0  0  0  0  0  0  0  0
    4.4570   -6.2049   37.3077 H   0  0  0  0  0  0  0  0  0  0  0  0
    5.4666   -7.8269   38.8551 H   0  0  0  0  0  0  0  0  0  0  0  0
    4.0317   -9.2991   40.2444 H   0  0  0  0  0  0  0  0  0  0  0  0
    1.5645   -9.1406   40.0695 H   0  0  0  0  0  0  0  0  0  0  0  0
    0.5263   -7.5363   38.5526 H   0  0  0  0  0  0  0  0  0  0  0  0
  1  2  1  0
  2  3  1  0
  3  4  1  0
  4  5  2  0
  5  6  1  0
  6  7  2  0
  7  8  1  0
  8  9  2  0
  2 10  1  0
 10 11  2  0
 10 12  1  0
 12 13  1  0
 13 14  1  0
 14 15  2  0
 15 16  1  0
 16 17  2  0
 17 18  1  0
 18 19  2  0
 19 20  1  0
 20 21  1  0
 21 22  1  0
 22 23  1  0
 23 24  1  0
 24 25  1  0
 25 26  1  0
 26 27  1  0
 27 28  2  0
 28 29  1  0
 29 30  2  0
 30 31  1  0
 31 32  2  0
 26 33  1  0
 33 34  2  0
 33 35  2  0
  9  4  1  0
 21 13  2  0
 33 22  1  0
 20 16  1  0
 32 27  1  0
  1 36  1  0
  1 37  1  0
  1 38  1  0
  3 39  1  0
  3 40  1  0
  5 41  1  0
  6 42  1  0
  7 43  1  0
  8 44  1  0
  9 45  1  0
 12 46  1  0
 14 47  1  0
 15 48  1  0
 19 49  1  0
 23 50  1  0
 23 51  1  0
 24 52  1  0
 24 53  1  0
 25 54  1  0
 25 55  1  0
 26 56  1  0
 28 57  1  0
 29 58  1  0
 30 59  1  0
 31 60  1  0
 32 61  1  0
M  END
>  <Energy>  (773) 
113.03472860263142

>  <compound_id>  (773) 
3760

>  <target_id>  (773) 
1

>  <reference_id>  (773) 
198

>  <inspiration_ids>  (773) 
[152, 198]

>  <energy_score>  (773) 
25.231308916203247

>  <distance_score>  (773) 
1.613919088417625

>  <path>  (773) 
/opt/xchem-fragalysis-2/maxwin/BulkDock/SCRATCH/505735/C3760-P198/C3760-P198.minimised.mol

>  <scratch_subdir>  (773) 
/opt/xchem-fragalysis-2/maxwin/BulkDock/SCRATCH/505735/C3760-P198

>  <fragmenstein_runtime>  (773) 
30.22453022003174

>  <fragmenstein_outcome>  (773) 
too moved

>  <fragmenstein_mode>  (773) 
expansion

>  <fragmenstein_error>  (773) 


$$$$
C4077-P152
     RDKit          3D

 72 77  0  0  0  0  0  0  0  0999 V2000
    2.8851   -4.2588   35.3256 O   0  0  0  0  0  0  0  0  0  0  0  0
    2.9700   -3.8211   34.2736 C   0  0  0  0  0  0  0  0  0  0  0  0
    2.1268   -4.0924   33.0058 N   0  0  0  0  0  0  0  0  0  0  0  0
    1.1119   -4.9972   32.7851 C   0  0  0  0  0  0  0  0  0  0  0  0
    0.7836   -5.0299   31.3551 C   0  0  0  0  0  0  0  0  0  0  0  0
   -0.0149   -5.9426   30.7965 C   0  0  0  0  0  0  0  0  0  0  0  0
   -0.6560   -6.8757   31.6242 C   0  0  0  0  0  0  0  0  0  0  0  0
   -1.4751   -7.8550   31.3316 N   0  0  0  0  0  0  0  0  0  0  0  0
   -1.9271   -8.3567   32.5146 N   0  0  0  0  0  0  0  0  0  0  0  0
   -1.3687   -7.6772   33.4938 C   0  0  0  0  0  0  0  0  0  0  0  0
   -0.4907   -6.7511   33.0013 N   0  0  0  0  0  0  0  0  0  0  0  0
    0.4055   -5.8280   33.5978 C   0  0  0  0  0  0  0  0  0  0  0  0
    0.6048   -5.6794   35.0110 N   0  0  0  0  0  0  0  0  0  0  0  0
   -0.3488   -4.8207   35.7574 C   0  0  0  0  0  0  0  0  0  0  0  0
    0.2796   -4.2977   37.0504 C   0  0  0  0  0  0  0  0  0  0  0  0
    0.7938   -5.3990   37.9839 C   0  0  0  0  0  0  0  0  0  0  0  0
    1.8285   -6.3248   37.3196 C   0  0  0  0  0  0  0  0  0  0  0  0
    2.3658   -7.4197   38.2217 C   0  0  0  0  0  0  0  0  0  0  0  0
    3.7434   -7.7027   38.2095 C   0  0  0  0  0  0  0  0  0  0  0  0
    4.2813   -8.6849   39.0428 C   0  0  0  0  0  0  0  0  0  0  0  0
    3.4515   -9.3989   39.9010 C   0  0  0  0  0  0  0  0  0  0  0  0
    2.0852   -9.1358   39.9195 C   0  0  0  0  0  0  0  0  0  0  0  0
    1.5430   -8.1603   39.0812 C   0  0  0  0  0  0  0  0  0  0  0  0
    1.0970   -7.0823   35.8493 S   0  0  0  0  0  0  0  0  0  0  0  0
   -0.1118   -7.7746   36.2472 O   0  0  0  0  0  0  0  0  0  0  0  0
    2.0826   -7.7581   35.0222 O   0  0  0  0  0  0  0  0  0  0  0  0
    3.9431   -2.7926   33.7114 N   0  0  0  0  0  0  0  0  0  0  0  0
    5.0068   -1.9793   34.3971 C   0  0  0  0  0  0  0  0  0  0  0  0
    5.8262   -0.9874   33.5414 C   0  0  0  0  0  0  0  0  0  0  0  0
    5.6664   -1.2699   32.0543 C   0  0  0  0  0  0  0  0  0  0  0  0
    5.7171   -2.7832   31.8485 C   0  0  0  0  0  0  0  0  0  0  0  0
    4.9901   -3.3502   30.6336 C   0  0  0  0  0  0  0  0  0  0  0  0
    3.8023   -2.8162   30.1261 C   0  0  0  0  0  0  0  0  0  0  0  0
    3.0623   -3.5199   29.1718 C   0  0  0  0  0  0  0  0  0  0  0  0
    3.4910   -4.7764   28.7207 C   0  0  0  0  0  0  0  0  0  0  0  0
    2.6768   -5.5250   27.7310 C   0  0  0  0  0  0  0  0  0  0  0  0
    2.8403   -6.9323   27.8319 O   0  0  0  0  0  0  0  0  0  0  0  0
    4.7216   -5.2645   29.1355 C   0  0  0  0  0  0  0  0  0  0  0  0
    5.4564   -4.5596   30.0837 C   0  0  0  0  0  0  0  0  0  0  0  0
    5.1908   -3.4679   33.1402 C   0  0  0  0  0  0  0  0  0  0  0  0
    2.5247   -3.5960   32.2213 H   0  0  0  0  0  0  0  0  0  0  0  0
    1.1809   -4.2529   30.7186 H   0  0  0  0  0  0  0  0  0  0  0  0
   -0.2372   -5.9285   29.7397 H   0  0  0  0  0  0  0  0  0  0  0  0
   -1.5808   -7.8336   34.5379 H   0  0  0  0  0  0  0  0  0  0  0  0
   -0.6305   -3.9600   35.1395 H   0  0  0  0  0  0  0  0  0  0  0  0
   -1.2649   -5.3805   35.9743 H   0  0  0  0  0  0  0  0  0  0  0  0
   -0.4730   -3.7076   37.5879 H   0  0  0  0  0  0  0  0  0  0  0  0
    1.0955   -3.6053   36.8215 H   0  0  0  0  0  0  0  0  0  0  0  0
    1.2374   -4.9330   38.8726 H   0  0  0  0  0  0  0  0  0  0  0  0
   -0.0746   -5.9695   38.3352 H   0  0  0  0  0  0  0  0  0  0  0  0
    2.6802   -5.7318   36.9876 H   0  0  0  0  0  0  0  0  0  0  0  0
    4.4136   -7.1562   37.5485 H   0  0  0  0  0  0  0  0  0  0  0  0
    5.3475   -8.8936   39.0219 H   0  0  0  0  0  0  0  0  0  0  0  0
    3.8606  -10.1712   40.5468 H   0  0  0  0  0  0  0  0  0  0  0  0
    1.4293   -9.7189   40.5639 H   0  0  0  0  0  0  0  0  0  0  0  0
    0.4654   -8.0153   39.1038 H   0  0  0  0  0  0  0  0  0  0  0  0
    4.3890   -1.3342   35.0431 H   0  0  0  0  0  0  0  0  0  0  0  0
    5.5757   -2.5126   35.1793 H   0  0  0  0  0  0  0  0  0  0  0  0
    5.5273    0.0450   33.7576 H   0  0  0  0  0  0  0  0  0  0  0  0
    6.8824   -1.0698   33.8262 H   0  0  0  0  0  0  0  0  0  0  0  0
    6.4451   -0.7675   31.4694 H   0  0  0  0  0  0  0  0  0  0  0  0
    4.7149   -0.8351   31.7350 H   0  0  0  0  0  0  0  0  0  0  0  0
    6.7763   -3.0595   31.7457 H   0  0  0  0  0  0  0  0  0  0  0  0
    3.3972   -1.8769   30.4933 H   0  0  0  0  0  0  0  0  0  0  0  0
    2.1363   -3.0824   28.7994 H   0  0  0  0  0  0  0  0  0  0  0  0
    2.9539   -5.2046   26.7220 H   0  0  0  0  0  0  0  0  0  0  0  0
    1.6464   -5.2712   27.9513 H   0  0  0  0  0  0  0  0  0  0  0  0
    3.0084   -7.2297   26.9172 H   0  0  0  0  0  0  0  0  0  0  0  0
    5.1078   -6.2095   28.7610 H   0  0  0  0  0  0  0  0  0  0  0  0
    6.3886   -4.9962   30.4418 H   0  0  0  0  0  0  0  0  0  0  0  0
    5.9947   -3.7705   33.8380 H   0  0  0  0  0  0  0  0  0  0  0  0
    4.8397   -4.4711   32.8488 H   0  0  0  0  0  0  0  0  0  0  0  0
  1  2  2  0
  2  3  1  0
  3  4  1  0
  4  5  1  0
  5  6  2  0
  6  7  1  0
  7  8  2  0
  8  9  1  0
  9 10  2  0
 10 11  1  0
 11 12  1  0
 12 13  1  0
 13 14  1  0
 14 15  1  0
 15 16  1  0
 16 17  1  0
 17 18  1  0
 18 19  2  0
 19 20  1  0
 20 21  2  0
 21 22  1  0
 22 23  2  0
 17 24  1  0
 24 25  2  0
 24 26  2  0
  2 27  1  0
 27 28  1  0
 28 29  1  0
 29 30  1  0
 30 31  1  0
 31 32  1  0
 32 33  2  0
 33 34  1  0
 34 35  2  0
 35 36  1  0
 36 37  1  0
 35 38  1  0
 38 39  2  0
 31 40  1  0
 12  4  2  0
 24 13  1  0
 40 27  1  0
 11  7  1  0
 23 18  1  0
 39 32  1  0
  3 41  1  0
  5 42  1  0
  6 43  1  0
 10 44  1  0
 14 45  1  0
 14 46  1  0
 15 47  1  0
 15 48  1  0
 16 49  1  0
 16 50  1  0
 17 51  1  0
 19 52  1  0
 20 53  1  0
 21 54  1  0
 22 55  1  0
 23 56  1  0
 28 57  1  0
 28 58  1  0
 29 59  1  0
 29 60  1  0
 30 61  1  0
 30 62  1  0
 31 63  1  0
 33 64  1  0
 34 65  1  0
 36 66  1  0
 36 67  1  0
 37 68  1  0
 38 69  1  0
 39 70  1  0
 40 71  1  0
 40 72  1  0
M  END
>  <Energy>  (774) 
139.06500961448234

>  <compound_id>  (774) 
4077

>  <target_id>  (774) 
1

>  <reference_id>  (774) 
152

>  <inspiration_ids>  (774) 
[152, 201]

>  <energy_score>  (774) 
-5.355198550545026

>  <distance_score>  (774) 
1.4720499400535292

>  <path>  (774) 
/opt/xchem-fragalysis-2/maxwin/BulkDock/SCRATCH/505735/C4077-P152/C4077-P152.minimised.mol

>  <scratch_subdir>  (774) 
/opt/xchem-fragalysis-2/maxwin/BulkDock/SCRATCH/505735/C4077-P152

>  <fragmenstein_runtime>  (774) 
10.483933210372925

>  <fragmenstein_outcome>  (774) 
too moved

>  <fragmenstein_mode>  (774) 
expansion

>  <fragmenstein_error>  (774) 


$$$$
C4077-P201
     RDKit          3D

 72 77  0  0  0  0  0  0  0  0999 V2000
    2.8418   -4.0120   35.0761 O   0  0  0  0  0  0  0  0  0  0  0  0
    2.8906   -3.6251   34.0017 C   0  0  0  0  0  0  0  0  0  0  0  0
    2.0368   -3.9910   32.7672 N   0  0  0  0  0  0  0  0  0  0  0  0
    1.0551   -4.9417   32.6119 C   0  0  0  0  0  0  0  0  0  0  0  0
    0.6356   -4.9532   31.2031 C   0  0  0  0  0  0  0  0  0  0  0  0
   -0.1904   -5.8659   30.6878 C   0  0  0  0  0  0  0  0  0  0  0  0
   -0.7185   -6.8566   31.5244 C   0  0  0  0  0  0  0  0  0  0  0  0
   -1.5075   -7.8651   31.2479 N   0  0  0  0  0  0  0  0  0  0  0  0
   -1.8323   -8.4425   32.4344 N   0  0  0  0  0  0  0  0  0  0  0  0
   -1.2364   -7.7708   33.3999 C   0  0  0  0  0  0  0  0  0  0  0  0
   -0.4487   -6.7756   32.8894 N   0  0  0  0  0  0  0  0  0  0  0  0
    0.4401   -5.8188   33.4524 C   0  0  0  0  0  0  0  0  0  0  0  0
    0.6779   -5.6369   34.8596 N   0  0  0  0  0  0  0  0  0  0  0  0
   -0.2832   -4.7691   35.5967 C   0  0  0  0  0  0  0  0  0  0  0  0
    0.3420   -4.2042   36.8737 C   0  0  0  0  0  0  0  0  0  0  0  0
    0.8960   -5.2679   37.8254 C   0  0  0  0  0  0  0  0  0  0  0  0
    1.9230   -6.2090   37.1673 C   0  0  0  0  0  0  0  0  0  0  0  0
    2.4671   -7.2745   38.1054 C   0  0  0  0  0  0  0  0  0  0  0  0
    3.8419   -7.5633   38.0988 C   0  0  0  0  0  0  0  0  0  0  0  0
    4.3797   -8.5122   38.9717 C   0  0  0  0  0  0  0  0  0  0  0  0
    3.5546   -9.1830   39.8696 C   0  0  0  0  0  0  0  0  0  0  0  0
    2.1900   -8.9152   39.8829 C   0  0  0  0  0  0  0  0  0  0  0  0
    1.6472   -7.9816   38.9980 C   0  0  0  0  0  0  0  0  0  0  0  0
    1.1676   -7.0181   35.7406 S   0  0  0  0  0  0  0  0  0  0  0  0
   -0.0438   -7.6674   36.1930 O   0  0  0  0  0  0  0  0  0  0  0  0
    2.1498   -7.7284   34.9382 O   0  0  0  0  0  0  0  0  0  0  0  0
    3.7730   -2.5541   33.3826 N   0  0  0  0  0  0  0  0  0  0  0  0
    4.7641   -1.6218   34.0175 C   0  0  0  0  0  0  0  0  0  0  0  0
    5.4786   -0.6316   33.0612 C   0  0  0  0  0  0  0  0  0  0  0  0
    5.2526   -1.0201   31.5988 C   0  0  0  0  0  0  0  0  0  0  0  0
    5.4545   -2.5331   31.4672 C   0  0  0  0  0  0  0  0  0  0  0  0
    4.7326   -3.2707   30.3407 C   0  0  0  0  0  0  0  0  0  0  0  0
    5.0431   -4.6246   30.1562 C   0  0  0  0  0  0  0  0  0  0  0  0
    4.2753   -5.4347   29.3217 C   0  0  0  0  0  0  0  0  0  0  0  0
    3.2244   -4.9118   28.5832 C   0  0  0  0  0  0  0  0  0  0  0  0
    2.3299   -5.7958   27.7895 C   0  0  0  0  0  0  0  0  0  0  0  0
    2.9742   -6.9860   27.3706 O   0  0  0  0  0  0  0  0  0  0  0  0
    2.9791   -3.5439   28.6620 C   0  0  0  0  0  0  0  0  0  0  0  0
    3.7216   -2.7353   29.5357 C   0  0  0  0  0  0  0  0  0  0  0  0
    5.0700   -3.1526   32.8436 C   0  0  0  0  0  0  0  0  0  0  0  0
    2.2942   -3.3982   31.9883 H   0  0  0  0  0  0  0  0  0  0  0  0
    0.9776   -4.1563   30.5502 H   0  0  0  0  0  0  0  0  0  0  0  0
   -0.5116   -5.8207   29.6586 H   0  0  0  0  0  0  0  0  0  0  0  0
   -1.3610   -7.9896   34.4466 H   0  0  0  0  0  0  0  0  0  0  0  0
   -0.5846   -3.9287   34.9601 H   0  0  0  0  0  0  0  0  0  0  0  0
   -1.1899   -5.3363   35.8342 H   0  0  0  0  0  0  0  0  0  0  0  0
   -0.4226   -3.6245   37.4060 H   0  0  0  0  0  0  0  0  0  0  0  0
    1.1333   -3.4910   36.6274 H   0  0  0  0  0  0  0  0  0  0  0  0
    1.3572   -4.7686   38.6868 H   0  0  0  0  0  0  0  0  0  0  0  0
    0.0415   -5.8320   38.2183 H   0  0  0  0  0  0  0  0  0  0  0  0
    2.7654   -5.6244   36.7899 H   0  0  0  0  0  0  0  0  0  0  0  0
    4.5103   -7.0471   37.4120 H   0  0  0  0  0  0  0  0  0  0  0  0
    5.4458   -8.7229   38.9533 H   0  0  0  0  0  0  0  0  0  0  0  0
    3.9731   -9.9171   40.5521 H   0  0  0  0  0  0  0  0  0  0  0  0
    1.5346   -9.4473   40.5667 H   0  0  0  0  0  0  0  0  0  0  0  0
    0.5685   -7.8385   39.0090 H   0  0  0  0  0  0  0  0  0  0  0  0
    4.0992   -0.9869   34.6252 H   0  0  0  0  0  0  0  0  0  0  0  0
    5.3839   -2.0538   34.8228 H   0  0  0  0  0  0  0  0  0  0  0  0
    5.1251    0.3915   33.2344 H   0  0  0  0  0  0  0  0  0  0  0  0
    6.5518   -0.6348   33.2881 H   0  0  0  0  0  0  0  0  0  0  0  0
    5.9269   -0.4717   30.9321 H   0  0  0  0  0  0  0  0  0  0  0  0
    4.2328   -0.7208   31.3340 H   0  0  0  0  0  0  0  0  0  0  0  0
    6.5283   -2.7123   31.3140 H   0  0  0  0  0  0  0  0  0  0  0  0
    5.8581   -5.0827   30.7153 H   0  0  0  0  0  0  0  0  0  0  0  0
    4.5272   -6.4888   29.2516 H   0  0  0  0  0  0  0  0  0  0  0  0
    1.9642   -5.2703   26.9039 H   0  0  0  0  0  0  0  0  0  0  0  0
    1.5184   -6.0818   28.4509 H   0  0  0  0  0  0  0  0  0  0  0  0
    3.6189   -6.7156   26.6880 H   0  0  0  0  0  0  0  0  0  0  0  0
    2.1750   -3.0878   28.0852 H   0  0  0  0  0  0  0  0  0  0  0  0
    3.4543   -1.6828   29.5963 H   0  0  0  0  0  0  0  0  0  0  0  0
    5.9383   -3.2883   33.5169 H   0  0  0  0  0  0  0  0  0  0  0  0
    4.8224   -4.2130   32.6837 H   0  0  0  0  0  0  0  0  0  0  0  0
  1  2  2  0
  2  3  1  0
  3  4  1  0
  4  5  1  0
  5  6  2  0
  6  7  1  0
  7  8  2  0
  8  9  1  0
  9 10  2  0
 10 11  1  0
 11 12  1  0
 12 13  1  0
 13 14  1  0
 14 15  1  0
 15 16  1  0
 16 17  1  0
 17 18  1  0
 18 19  2  0
 19 20  1  0
 20 21  2  0
 21 22  1  0
 22 23  2  0
 17 24  1  0
 24 25  2  0
 24 26  2  0
  2 27  1  0
 27 28  1  0
 28 29  1  0
 29 30  1  0
 30 31  1  0
 31 32  1  0
 32 33  2  0
 33 34  1  0
 34 35  2  0
 35 36  1  0
 36 37  1  0
 35 38  1  0
 38 39  2  0
 31 40  1  0
 12  4  2  0
 24 13  1  0
 40 27  1  0
 11  7  1  0
 23 18  1  0
 39 32  1  0
  3 41  1  0
  5 42  1  0
  6 43  1  0
 10 44  1  0
 14 45  1  0
 14 46  1  0
 15 47  1  0
 15 48  1  0
 16 49  1  0
 16 50  1  0
 17 51  1  0
 19 52  1  0
 20 53  1  0
 21 54  1  0
 22 55  1  0
 23 56  1  0
 28 57  1  0
 28 58  1  0
 29 59  1  0
 29 60  1  0
 30 61  1  0
 30 62  1  0
 31 63  1  0
 33 64  1  0
 34 65  1  0
 36 66  1  0
 36 67  1  0
 37 68  1  0
 38 69  1  0
 39 70  1  0
 40 71  1  0
 40 72  1  0
M  END
>  <Energy>  (775) 
140.16612385202893

>  <compound_id>  (775) 
4077

>  <target_id>  (775) 
1

>  <reference_id>  (775) 
201

>  <inspiration_ids>  (775) 
[152, 201]

>  <energy_score>  (775) 
-4.254084313005649

>  <distance_score>  (775) 
1.766884565472495

>  <path>  (775) 
/opt/xchem-fragalysis-2/maxwin/BulkDock/SCRATCH/505735/C4077-P201/C4077-P201.minimised.mol

>  <scratch_subdir>  (775) 
/opt/xchem-fragalysis-2/maxwin/BulkDock/SCRATCH/505735/C4077-P201

>  <fragmenstein_runtime>  (775) 
10.330570697784424

>  <fragmenstein_outcome>  (775) 
too moved

>  <fragmenstein_mode>  (775) 
expansion

>  <fragmenstein_error>  (775) 


$$$$
C4355-P153
     RDKit          3D

 54 59  0  0  0  0  0  0  0  0999 V2000
    3.8934   -8.7579   38.1750 C   0  0  0  0  0  0  0  0  0  0  0  0
    2.6492   -8.4635   38.7160 C   0  0  0  0  0  0  0  0  0  0  0  0
    1.9756   -7.3032   38.3308 C   0  0  0  0  0  0  0  0  0  0  0  0
    2.5260   -6.4081   37.3964 C   0  0  0  0  0  0  0  0  0  0  0  0
    1.9016   -5.0649   37.0942 C   0  0  0  0  0  0  0  0  0  0  0  0
    0.5840   -4.7085   37.8347 C   0  0  0  0  0  0  0  0  0  0  0  0
   -0.6796   -5.4247   37.3008 C   0  0  0  0  0  0  0  0  0  0  0  0
   -1.0023   -5.1745   35.8150 C   0  0  0  0  0  0  0  0  0  0  0  0
    0.1453   -5.4997   35.0072 N   0  0  0  0  0  0  0  0  0  0  0  0
    0.4484   -5.2020   33.6979 C   0  0  0  0  0  0  0  0  0  0  0  0
    1.8362   -4.1998   33.0577 C   0  0  0  0  0  0  0  0  0  0  0  0
    2.3885   -4.5298   31.2896 C   0  0  0  0  0  0  0  0  0  0  0  0
    1.6294   -5.5067   30.4208 C   0  0  0  0  0  0  0  0  0  0  0  0
    0.2719   -6.4271   30.9671 C   0  0  0  0  0  0  0  0  0  0  0  0
   -0.5216   -7.3180   30.4061 N   0  0  0  0  0  0  0  0  0  0  0  0
   -1.3576   -7.8803   31.3846 N   0  0  0  0  0  0  0  0  0  0  0  0
   -1.1454   -7.3853   32.5960 C   0  0  0  0  0  0  0  0  0  0  0  0
   -0.2603   -6.3532   32.5544 N   0  0  0  0  0  0  0  0  0  0  0  0
    1.5533   -4.8121   35.3880 S   0  0  0  0  0  0  0  0  0  0  0  0
    0.8661   -3.0109   34.8500 N   0  0  0  0  0  0  0  0  0  0  0  0
   -0.1208   -3.0112   33.3127 N   0  0  0  0  0  0  0  0  0  0  0  0
    0.2534   -4.2279   31.9977 C   0  0  0  0  0  0  0  0  0  0  0  0
    0.3352   -3.2414   30.7271 C   0  0  0  0  0  0  0  0  0  0  0  0
    0.9629   -2.0074   30.6022 C   0  0  0  0  0  0  0  0  0  0  0  0
    0.6731   -1.4922   29.3228 C   0  0  0  0  0  0  0  0  0  0  0  0
   -0.1790   -2.3797   28.7185 C   0  0  0  0  0  0  0  0  0  0  0  0
   -0.3604   -3.4480   29.5520 N   0  0  0  0  0  0  0  0  0  0  0  0
    1.5275   -5.8116   32.4123 O   0  0  0  0  0  0  0  0  0  0  0  0
    2.4416   -5.8043   34.1249 O   0  0  0  0  0  0  0  0  0  0  0  0
    3.7851   -6.7282   36.8634 C   0  0  0  0  0  0  0  0  0  0  0  0
    4.4584   -7.8935   37.2432 C   0  0  0  0  0  0  0  0  0  0  0  0
    4.4207   -9.6584   38.4755 H   0  0  0  0  0  0  0  0  0  0  0  0
    2.1924   -9.1342   39.4392 H   0  0  0  0  0  0  0  0  0  0  0  0
    1.0203   -7.1170   38.8119 H   0  0  0  0  0  0  0  0  0  0  0  0
    2.6390   -4.2986   37.3664 H   0  0  0  0  0  0  0  0  0  0  0  0
    0.4121   -3.6279   37.7338 H   0  0  0  0  0  0  0  0  0  0  0  0
    0.6846   -4.8893   38.9113 H   0  0  0  0  0  0  0  0  0  0  0  0
   -0.5927   -6.5046   37.4569 H   0  0  0  0  0  0  0  0  0  0  0  0
   -1.5312   -5.0903   37.9018 H   0  0  0  0  0  0  0  0  0  0  0  0
   -1.8261   -5.8311   35.5279 H   0  0  0  0  0  0  0  0  0  0  0  0
   -1.3365   -4.1410   35.6851 H   0  0  0  0  0  0  0  0  0  0  0  0
    2.6173   -3.5962   33.5265 H   0  0  0  0  0  0  0  0  0  0  0  0
    3.2619   -3.9583   30.9909 H   0  0  0  0  0  0  0  0  0  0  0  0
    1.9170   -5.6963   29.3932 H   0  0  0  0  0  0  0  0  0  0  0  0
   -1.6069   -7.7249   33.5119 H   0  0  0  0  0  0  0  0  0  0  0  0
    1.6703   -2.4030   34.6789 H   0  0  0  0  0  0  0  0  0  0  0  0
   -1.0506   -3.3092   33.6275 H   0  0  0  0  0  0  0  0  0  0  0  0
   -0.7857   -4.6033   31.8529 H   0  0  0  0  0  0  0  0  0  0  0  0
    1.5520   -1.5237   31.3714 H   0  0  0  0  0  0  0  0  0  0  0  0
    0.9899   -0.5432   28.9101 H   0  0  0  0  0  0  0  0  0  0  0  0
   -0.7054   -2.3223   27.7764 H   0  0  0  0  0  0  0  0  0  0  0  0
   -0.9338   -4.2456   29.3136 H   0  0  0  0  0  0  0  0  0  0  0  0
    4.2736   -6.0537   36.1629 H   0  0  0  0  0  0  0  0  0  0  0  0
    5.4351   -8.1156   36.8208 H   0  0  0  0  0  0  0  0  0  0  0  0
  1  2  2  0
  2  3  1  0
  3  4  2  0
  4  5  1  0
  5  6  1  0
  6  7  1  0
  7  8  1  0
  8  9  1  0
  9 10  1  0
 10 11  2  0
 11 12  1  0
 12 13  2  0
 13 14  1  0
 14 15  2  0
 15 16  1  0
 16 17  2  0
 17 18  1  0
  9 19  1  0
 19 20  1  0
 20 21  1  0
 21 22  1  0
 22 23  1  0
 23 24  2  0
 24 25  1  0
 25 26  2  0
 26 27  1  0
 22 28  1  0
 28 29  1  0
  4 30  1  0
 30 31  2  0
 31  1  1  0
 19  5  1  0
 27 23  1  0
 18 10  1  0
 29 19  1  0
 18 14  1  0
  1 32  1  0
  2 33  1  0
  3 34  1  0
  5 35  1  0
  6 36  1  0
  6 37  1  0
  7 38  1  0
  7 39  1  0
  8 40  1  0
  8 41  1  0
 11 42  1  0
 12 43  1  0
 13 44  1  0
 17 45  1  0
 20 46  1  0
 21 47  1  0
 22 48  1  0
 24 49  1  0
 25 50  1  0
 26 51  1  0
 27 52  1  0
 30 53  1  0
 31 54  1  0
M  END
>  <Energy>  (776) 
1338.2286526074206

>  <compound_id>  (776) 
4355

>  <target_id>  (776) 
1

>  <reference_id>  (776) 
153

>  <inspiration_ids>  (776) 
[153, 40]

>  <energy_score>  (776) 
1094.726088307565

>  <distance_score>  (776) 
2.5382308824858173

>  <path>  (776) 
/opt/xchem-fragalysis-2/maxwin/BulkDock/SCRATCH/505735/C4355-P153/C4355-P153.minimised.mol

>  <scratch_subdir>  (776) 
/opt/xchem-fragalysis-2/maxwin/BulkDock/SCRATCH/505735/C4355-P153

>  <fragmenstein_runtime>  (776) 
4.492068767547607

>  <fragmenstein_outcome>  (776) 
too moved

>  <fragmenstein_mode>  (776) 
expansion

>  <fragmenstein_error>  (776) 


$$$$
C4355-P40
     RDKit          3D

 54 59  0  0  0  0  0  0  0  0999 V2000
    3.4228   -9.2150   37.7665 C   0  0  0  0  0  0  0  0  0  0  0  0
    2.2811   -8.7320   38.3906 C   0  0  0  0  0  0  0  0  0  0  0  0
    1.8092   -7.4525   38.0864 C   0  0  0  0  0  0  0  0  0  0  0  0
    2.4480   -6.6331   37.1358 C   0  0  0  0  0  0  0  0  0  0  0  0
    2.0175   -5.2041   36.8675 C   0  0  0  0  0  0  0  0  0  0  0  0
    0.7534   -4.6997   37.6189 C   0  0  0  0  0  0  0  0  0  0  0  0
   -0.5844   -5.2932   37.1123 C   0  0  0  0  0  0  0  0  0  0  0  0
   -0.8915   -5.0801   35.6172 C   0  0  0  0  0  0  0  0  0  0  0  0
    0.2244   -5.5071   34.8088 N   0  0  0  0  0  0  0  0  0  0  0  0
    0.5160   -5.2109   33.4931 C   0  0  0  0  0  0  0  0  0  0  0  0
    1.9397   -4.2751   32.8295 C   0  0  0  0  0  0  0  0  0  0  0  0
    2.4417   -4.6301   31.0479 C   0  0  0  0  0  0  0  0  0  0  0  0
    1.6119   -5.5556   30.1860 C   0  0  0  0  0  0  0  0  0  0  0  0
    0.2229   -6.4103   30.7556 C   0  0  0  0  0  0  0  0  0  0  0  0
   -0.6081   -7.2797   30.2122 N   0  0  0  0  0  0  0  0  0  0  0  0
   -1.4308   -7.8247   31.2141 N   0  0  0  0  0  0  0  0  0  0  0  0
   -1.1765   -7.3316   32.4188 C   0  0  0  0  0  0  0  0  0  0  0  0
   -0.2724   -6.3170   32.3564 N   0  0  0  0  0  0  0  0  0  0  0  0
    1.6730   -4.8918   35.1646 S   0  0  0  0  0  0  0  0  0  0  0  0
    1.0677   -3.0403   34.6364 N   0  0  0  0  0  0  0  0  0  0  0  0
   -0.0055   -3.0370   33.1531 N   0  0  0  0  0  0  0  0  0  0  0  0
    0.3390   -4.2128   31.8008 C   0  0  0  0  0  0  0  0  0  0  0  0
    0.4541   -3.2141   30.5405 C   0  0  0  0  0  0  0  0  0  0  0  0
    1.2475   -2.0889   30.3390 C   0  0  0  0  0  0  0  0  0  0  0  0
    0.9144   -1.5339   29.0865 C   0  0  0  0  0  0  0  0  0  0  0  0
   -0.1256   -2.2728   28.5855 C   0  0  0  0  0  0  0  0  0  0  0  0
   -0.3909   -3.2965   29.4508 N   0  0  0  0  0  0  0  0  0  0  0  0
    1.5344   -5.8636   32.1816 O   0  0  0  0  0  0  0  0  0  0  0  0
    2.4777   -5.9157   33.8786 O   0  0  0  0  0  0  0  0  0  0  0  0
    3.6101   -7.1409   36.5333 C   0  0  0  0  0  0  0  0  0  0  0  0
    4.0881   -8.4195   36.8392 C   0  0  0  0  0  0  0  0  0  0  0  0
    3.8031  -10.2027   38.0126 H   0  0  0  0  0  0  0  0  0  0  0  0
    1.7642   -9.3411   39.1282 H   0  0  0  0  0  0  0  0  0  0  0  0
    0.9408   -7.1136   38.6430 H   0  0  0  0  0  0  0  0  0  0  0  0
    2.8526   -4.5471   37.1398 H   0  0  0  0  0  0  0  0  0  0  0  0
    0.6923   -3.6088   37.5041 H   0  0  0  0  0  0  0  0  0  0  0  0
    0.8503   -4.8758   38.6966 H   0  0  0  0  0  0  0  0  0  0  0  0
   -0.6121   -6.3688   37.3116 H   0  0  0  0  0  0  0  0  0  0  0  0
   -1.3994   -4.8543   37.6996 H   0  0  0  0  0  0  0  0  0  0  0  0
   -1.7435   -5.7135   35.3688 H   0  0  0  0  0  0  0  0  0  0  0  0
   -1.1759   -4.0379   35.4457 H   0  0  0  0  0  0  0  0  0  0  0  0
    2.7697   -3.7327   33.2896 H   0  0  0  0  0  0  0  0  0  0  0  0
    3.3524   -4.1254   30.7389 H   0  0  0  0  0  0  0  0  0  0  0  0
    1.8808   -5.7696   29.1573 H   0  0  0  0  0  0  0  0  0  0  0  0
   -1.6139   -7.6600   33.3493 H   0  0  0  0  0  0  0  0  0  0  0  0
    1.9016   -2.4906   34.4222 H   0  0  0  0  0  0  0  0  0  0  0  0
    0.1656   -2.1288   32.7127 H   0  0  0  0  0  0  0  0  0  0  0  0
   -0.7138   -4.5445   31.6542 H   0  0  0  0  0  0  0  0  0  0  0  0
    1.9964   -1.7079   31.0221 H   0  0  0  0  0  0  0  0  0  0  0  0
    1.3393   -0.6528   28.6221 H   0  0  0  0  0  0  0  0  0  0  0  0
   -0.7262   -2.1362   27.6963 H   0  0  0  0  0  0  0  0  0  0  0  0
   -1.1259   -3.9729   29.2968 H   0  0  0  0  0  0  0  0  0  0  0  0
    4.1765   -6.5338   35.8299 H   0  0  0  0  0  0  0  0  0  0  0  0
    4.9942   -8.7865   36.3629 H   0  0  0  0  0  0  0  0  0  0  0  0
  1  2  2  0
  2  3  1  0
  3  4  2  0
  4  5  1  0
  5  6  1  0
  6  7  1  0
  7  8  1  0
  8  9  1  0
  9 10  1  0
 10 11  2  0
 11 12  1  0
 12 13  2  0
 13 14  1  0
 14 15  2  0
 15 16  1  0
 16 17  2  0
 17 18  1  0
  9 19  1  0
 19 20  1  0
 20 21  1  0
 21 22  1  0
 22 23  1  0
 23 24  2  0
 24 25  1  0
 25 26  2  0
 26 27  1  0
 22 28  1  0
 28 29  1  0
  4 30  1  0
 30 31  2  0
 31  1  1  0
 19  5  1  0
 27 23  1  0
 18 10  1  0
 29 19  1  0
 18 14  1  0
  1 32  1  0
  2 33  1  0
  3 34  1  0
  5 35  1  0
  6 36  1  0
  6 37  1  0
  7 38  1  0
  7 39  1  0
  8 40  1  0
  8 41  1  0
 11 42  1  0
 12 43  1  0
 13 44  1  0
 17 45  1  0
 20 46  1  0
 21 47  1  0
 22 48  1  0
 24 49  1  0
 25 50  1  0
 26 51  1  0
 27 52  1  0
 30 53  1  0
 31 54  1  0
M  END
>  <Energy>  (777) 
1338.2486186424717

>  <compound_id>  (777) 
4355

>  <target_id>  (777) 
1

>  <reference_id>  (777) 
40

>  <inspiration_ids>  (777) 
[153, 40]

>  <energy_score>  (777) 
1094.7460543426143

>  <distance_score>  (777) 
2.522092652066342

>  <path>  (777) 
/opt/xchem-fragalysis-2/maxwin/BulkDock/SCRATCH/505735/C4355-P40/C4355-P40.minimised.mol

>  <scratch_subdir>  (777) 
/opt/xchem-fragalysis-2/maxwin/BulkDock/SCRATCH/505735/C4355-P40

>  <fragmenstein_runtime>  (777) 
4.070817708969116

>  <fragmenstein_outcome>  (777) 
too moved

>  <fragmenstein_mode>  (777) 
expansion

>  <fragmenstein_error>  (777) 


$$$$
C4336-P153
     RDKit          3D

 48 52  0  0  0  0  0  0  0  0999 V2000
   -0.7914   -6.7782   36.3428 O   0  0  0  0  0  0  0  0  0  0  0  0
    0.4155   -6.2147   35.7784 S   0  0  0  0  0  0  0  0  0  0  0  0
    1.2976   -7.0033   34.9324 O   0  0  0  0  0  0  0  0  0  0  0  0
    1.4209   -5.4375   37.0423 C   0  0  0  0  0  0  0  0  0  0  0  0
    1.5044   -6.3562   38.2484 C   0  0  0  0  0  0  0  0  0  0  0  0
    0.4843   -6.4485   39.2060 C   0  0  0  0  0  0  0  0  0  0  0  0
    0.5917   -7.3328   40.2836 C   0  0  0  0  0  0  0  0  0  0  0  0
    1.7200   -8.1358   40.4251 C   0  0  0  0  0  0  0  0  0  0  0  0
    2.7428   -8.0602   39.4856 C   0  0  0  0  0  0  0  0  0  0  0  0
    2.6350   -7.1809   38.4055 C   0  0  0  0  0  0  0  0  0  0  0  0
    1.0232   -3.9819   37.2831 C   0  0  0  0  0  0  0  0  0  0  0  0
   -0.4527   -3.6277   37.0910 C   0  0  0  0  0  0  0  0  0  0  0  0
   -1.1036   -3.9349   35.6948 C   0  0  0  0  0  0  0  0  0  0  0  0
   -1.9355   -2.6723   35.2230 C   0  0  0  0  0  0  0  0  0  0  0  0
   -2.8210   -2.0910   36.1771 C   0  0  0  0  0  0  0  0  0  0  0  0
   -3.7692   -1.1319   35.8205 C   0  0  0  0  0  0  0  0  0  0  0  0
   -3.9252   -0.6800   34.5698 N   0  0  0  0  0  0  0  0  0  0  0  0
   -3.0817   -1.2079   33.6566 C   0  0  0  0  0  0  0  0  0  0  0  0
   -2.0856   -2.1687   33.9268 C   0  0  0  0  0  0  0  0  0  0  0  0
   -0.0954   -4.7763   34.8829 N   0  0  0  0  0  0  0  0  0  0  0  0
   -0.1728   -5.0633   33.4719 C   0  0  0  0  0  0  0  0  0  0  0  0
    0.5559   -4.1808   32.7575 C   0  0  0  0  0  0  0  0  0  0  0  0
    0.7669   -4.3927   31.3360 C   0  0  0  0  0  0  0  0  0  0  0  0
    0.2879   -5.4809   30.7118 C   0  0  0  0  0  0  0  0  0  0  0  0
   -0.4477   -6.4454   31.4447 C   0  0  0  0  0  0  0  0  0  0  0  0
   -1.0254   -7.5632   31.0655 N   0  0  0  0  0  0  0  0  0  0  0  0
   -1.5705   -8.1381   32.1796 N   0  0  0  0  0  0  0  0  0  0  0  0
   -1.3218   -7.3535   33.2086 C   0  0  0  0  0  0  0  0  0  0  0  0
   -0.6460   -6.2280   32.8115 N   0  0  0  0  0  0  0  0  0  0  0  0
    2.4272   -5.3912   36.6014 H   0  0  0  0  0  0  0  0  0  0  0  0
   -0.4279   -5.8644   39.1190 H   0  0  0  0  0  0  0  0  0  0  0  0
   -0.2189   -7.4054   41.0047 H   0  0  0  0  0  0  0  0  0  0  0  0
    1.7915   -8.8296   41.2577 H   0  0  0  0  0  0  0  0  0  0  0  0
    3.6188   -8.6950   39.5848 H   0  0  0  0  0  0  0  0  0  0  0  0
    3.4438   -7.1574   37.6775 H   0  0  0  0  0  0  0  0  0  0  0  0
    1.3480   -3.6625   38.2814 H   0  0  0  0  0  0  0  0  0  0  0  0
    1.5906   -3.3557   36.5797 H   0  0  0  0  0  0  0  0  0  0  0  0
   -1.0507   -4.1242   37.8645 H   0  0  0  0  0  0  0  0  0  0  0  0
   -0.5218   -2.5560   37.3176 H   0  0  0  0  0  0  0  0  0  0  0  0
   -1.9060   -4.6539   35.8977 H   0  0  0  0  0  0  0  0  0  0  0  0
   -2.8215   -2.4211   37.2130 H   0  0  0  0  0  0  0  0  0  0  0  0
   -4.4471   -0.7114   36.5570 H   0  0  0  0  0  0  0  0  0  0  0  0
   -3.2263   -0.8455   32.6417 H   0  0  0  0  0  0  0  0  0  0  0  0
   -1.5106   -2.5508   33.0960 H   0  0  0  0  0  0  0  0  0  0  0  0
    1.0314   -3.3153   33.2099 H   0  0  0  0  0  0  0  0  0  0  0  0
    1.3235   -3.6383   30.7863 H   0  0  0  0  0  0  0  0  0  0  0  0
    0.4379   -5.6300   29.6509 H   0  0  0  0  0  0  0  0  0  0  0  0
   -1.6296   -7.5625   34.2218 H   0  0  0  0  0  0  0  0  0  0  0  0
  1  2  2  0
  2  3  2  0
  2  4  1  0
  4  5  1  0
  5  6  2  0
  6  7  1  0
  7  8  2  0
  8  9  1  0
  9 10  2  0
  4 11  1  0
 11 12  1  0
 12 13  1  0
 13 14  1  0
 14 15  2  0
 15 16  1  0
 16 17  2  0
 17 18  1  0
 18 19  2  0
 13 20  1  0
 20 21  1  0
 21 22  2  0
 22 23  1  0
 23 24  2  0
 24 25  1  0
 25 26  2  0
 26 27  1  0
 27 28  2  0
 28 29  1  0
 20  2  1  0
 29 21  1  0
 10  5  1  0
 19 14  1  0
 29 25  1  0
  4 30  1  0
  6 31  1  0
  7 32  1  0
  8 33  1  0
  9 34  1  0
 10 35  1  0
 11 36  1  0
 11 37  1  0
 12 38  1  0
 12 39  1  0
 13 40  1  0
 15 41  1  0
 16 42  1  0
 18 43  1  0
 19 44  1  0
 22 45  1  0
 23 46  1  0
 24 47  1  0
 28 48  1  0
M  END
>  <Energy>  (778) 
102.00221876248814

>  <compound_id>  (778) 
4336

>  <target_id>  (778) 
1

>  <reference_id>  (778) 
153

>  <inspiration_ids>  (778) 
[153, 121]

>  <energy_score>  (778) 
-30.825246271755987

>  <distance_score>  (778) 
1.5322926124212264

>  <path>  (778) 
/opt/xchem-fragalysis-2/maxwin/BulkDock/SCRATCH/505735/C4336-P153/C4336-P153.minimised.mol

>  <scratch_subdir>  (778) 
/opt/xchem-fragalysis-2/maxwin/BulkDock/SCRATCH/505735/C4336-P153

>  <fragmenstein_runtime>  (778) 
4.820942640304565

>  <fragmenstein_outcome>  (778) 
too moved

>  <fragmenstein_mode>  (778) 
expansion

>  <fragmenstein_error>  (778) 


$$$$
C4336-P121
     RDKit          3D

 48 52  0  0  0  0  0  0  0  0999 V2000
   -0.2934   -6.2908   36.1424 O   0  0  0  0  0  0  0  0  0  0  0  0
    0.8039   -5.5721   35.5272 S   0  0  0  0  0  0  0  0  0  0  0  0
    1.7898   -6.3046   34.7686 O   0  0  0  0  0  0  0  0  0  0  0  0
    1.6911   -4.4978   36.7116 C   0  0  0  0  0  0  0  0  0  0  0  0
    2.3228   -5.3200   37.8470 C   0  0  0  0  0  0  0  0  0  0  0  0
    1.9681   -5.1422   39.1982 C   0  0  0  0  0  0  0  0  0  0  0  0
    2.5679   -5.8774   40.2295 C   0  0  0  0  0  0  0  0  0  0  0  0
    3.5799   -6.7815   39.9417 C   0  0  0  0  0  0  0  0  0  0  0  0
    3.9691   -6.9660   38.6177 C   0  0  0  0  0  0  0  0  0  0  0  0
    3.3476   -6.2473   37.5839 C   0  0  0  0  0  0  0  0  0  0  0  0
    0.8278   -3.3129   37.1665 C   0  0  0  0  0  0  0  0  0  0  0  0
    0.1081   -2.5576   36.0471 C   0  0  0  0  0  0  0  0  0  0  0  0
   -0.8733   -3.4617   35.2662 C   0  0  0  0  0  0  0  0  0  0  0  0
   -2.0534   -2.5827   34.7611 C   0  0  0  0  0  0  0  0  0  0  0  0
   -3.0483   -2.2490   35.7245 C   0  0  0  0  0  0  0  0  0  0  0  0
   -4.1366   -1.4457   35.4020 C   0  0  0  0  0  0  0  0  0  0  0  0
   -4.3180   -0.9250   34.1828 N   0  0  0  0  0  0  0  0  0  0  0  0
   -3.3548   -1.2085   33.2767 C   0  0  0  0  0  0  0  0  0  0  0  0
   -2.2295   -2.0152   33.5059 C   0  0  0  0  0  0  0  0  0  0  0  0
    0.0301   -4.4117   34.4940 N   0  0  0  0  0  0  0  0  0  0  0  0
   -0.1660   -4.9261   33.1658 C   0  0  0  0  0  0  0  0  0  0  0  0
    0.4385   -4.1539   32.2403 C   0  0  0  0  0  0  0  0  0  0  0  0
    0.5111   -4.6030   30.8589 C   0  0  0  0  0  0  0  0  0  0  0  0
   -0.0096   -5.7815   30.4755 C   0  0  0  0  0  0  0  0  0  0  0  0
   -0.6526   -6.6112   31.4295 C   0  0  0  0  0  0  0  0  0  0  0  0
   -1.3187   -7.7409   31.2998 N   0  0  0  0  0  0  0  0  0  0  0  0
   -1.7014   -8.1399   32.5530 N   0  0  0  0  0  0  0  0  0  0  0  0
   -1.2837   -7.2270   33.4044 C   0  0  0  0  0  0  0  0  0  0  0  0
   -0.6704   -6.1861   32.7579 N   0  0  0  0  0  0  0  0  0  0  0  0
    2.5229   -4.0818   36.1252 H   0  0  0  0  0  0  0  0  0  0  0  0
    1.2011   -4.4339   39.5020 H   0  0  0  0  0  0  0  0  0  0  0  0
    2.2438   -5.7235   41.2563 H   0  0  0  0  0  0  0  0  0  0  0  0
    4.0602   -7.3407   40.7395 H   0  0  0  0  0  0  0  0  0  0  0  0
    4.7630   -7.6707   38.3803 H   0  0  0  0  0  0  0  0  0  0  0  0
    3.6929   -6.4166   36.5638 H   0  0  0  0  0  0  0  0  0  0  0  0
    0.0645   -3.6245   37.8800 H   0  0  0  0  0  0  0  0  0  0  0  0
    1.4651   -2.5999   37.7062 H   0  0  0  0  0  0  0  0  0  0  0  0
   -0.4151   -1.7123   36.5117 H   0  0  0  0  0  0  0  0  0  0  0  0
    0.8447   -2.1187   35.3611 H   0  0  0  0  0  0  0  0  0  0  0  0
   -1.3788   -4.1031   35.9972 H   0  0  0  0  0  0  0  0  0  0  0  0
   -2.9668   -2.6085   36.7462 H   0  0  0  0  0  0  0  0  0  0  0  0
   -4.8925   -1.1913   36.1381 H   0  0  0  0  0  0  0  0  0  0  0  0
   -3.4863   -0.7397   32.3080 H   0  0  0  0  0  0  0  0  0  0  0  0
   -1.5130   -2.1648   32.7075 H   0  0  0  0  0  0  0  0  0  0  0  0
    0.9323   -3.2195   32.4871 H   0  0  0  0  0  0  0  0  0  0  0  0
    1.0080   -3.9599   30.1376 H   0  0  0  0  0  0  0  0  0  0  0  0
    0.0413   -6.1230   29.4478 H   0  0  0  0  0  0  0  0  0  0  0  0
   -1.4511   -7.2627   34.4652 H   0  0  0  0  0  0  0  0  0  0  0  0
  1  2  2  0
  2  3  2  0
  2  4  1  0
  4  5  1  0
  5  6  2  0
  6  7  1  0
  7  8  2  0
  8  9  1  0
  9 10  2  0
  4 11  1  0
 11 12  1  0
 12 13  1  0
 13 14  1  0
 14 15  2  0
 15 16  1  0
 16 17  2  0
 17 18  1  0
 18 19  2  0
 13 20  1  0
 20 21  1  0
 21 22  2  0
 22 23  1  0
 23 24  2  0
 24 25  1  0
 25 26  2  0
 26 27  1  0
 27 28  2  0
 28 29  1  0
 20  2  1  0
 29 21  1  0
 10  5  1  0
 19 14  1  0
 29 25  1  0
  4 30  1  0
  6 31  1  0
  7 32  1  0
  8 33  1  0
  9 34  1  0
 10 35  1  0
 11 36  1  0
 11 37  1  0
 12 38  1  0
 12 39  1  0
 13 40  1  0
 15 41  1  0
 16 42  1  0
 18 43  1  0
 19 44  1  0
 22 45  1  0
 23 46  1  0
 24 47  1  0
 28 48  1  0
M  END
>  <Energy>  (779) 
94.128840367790957

>  <compound_id>  (779) 
4336

>  <target_id>  (779) 
1

>  <reference_id>  (779) 
121

>  <inspiration_ids>  (779) 
[153, 121]

>  <energy_score>  (779) 
-38.69862466645601

>  <distance_score>  (779) 
1.8285959564737888

>  <path>  (779) 
/opt/xchem-fragalysis-2/maxwin/BulkDock/SCRATCH/505735/C4336-P121/C4336-P121.minimised.mol

>  <scratch_subdir>  (779) 
/opt/xchem-fragalysis-2/maxwin/BulkDock/SCRATCH/505735/C4336-P121

>  <fragmenstein_runtime>  (779) 
5.315313339233398

>  <fragmenstein_outcome>  (779) 
too moved

>  <fragmenstein_mode>  (779) 
expansion

>  <fragmenstein_error>  (779) 


$$$$
C4338-P153
     RDKit          3D

 75 81  0  0  0  0  0  0  0  0999 V2000
    1.7121   -1.6414   28.0907 O   0  0  0  0  0  0  0  0  0  0  0  0
    0.9430   -1.5022   28.9607 C   0  0  0  0  0  0  0  0  0  0  0  0
    0.1062   -0.2617   29.3743 N   0  0  0  0  0  0  0  0  0  0  0  0
    0.1145    1.0984   28.8578 C   0  0  0  0  0  0  0  0  0  0  0  0
    0.7796    2.0781   29.8664 C   0  0  0  0  0  0  0  0  0  0  0  0
    0.9876    1.8048   31.1374 N   0  0  0  0  0  0  0  0  0  0  0  0
    1.4940    2.9370   31.7343 N   0  0  0  0  0  0  0  0  0  0  0  0
    1.5600    3.8880   30.8249 C   0  0  0  0  0  0  0  0  0  0  0  0
    1.9653    5.2440   31.0350 C   0  0  0  0  0  0  0  0  0  0  0  0
    1.6369    6.3536   30.2773 C   0  0  0  0  0  0  0  0  0  0  0  0
    2.2241    7.5531   30.7799 C   0  0  0  0  0  0  0  0  0  0  0  0
    2.9785    7.3230   31.9072 C   0  0  0  0  0  0  0  0  0  0  0  0
    2.9673    5.6746   32.3590 S   0  0  0  0  0  0  0  0  0  0  0  0
    1.1434    3.3763   29.6255 N   0  0  0  0  0  0  0  0  0  0  0  0
    0.5506    1.2293   27.3874 C   0  0  0  0  0  0  0  0  0  0  0  0
   -0.9155    0.9250   26.9935 C   0  0  0  0  0  0  0  0  0  0  0  0
   -1.2925    1.5061   28.3531 C   0  0  0  0  0  0  0  0  0  0  0  0
    0.5856   -2.6689   29.9229 C   0  0  0  0  0  0  0  0  0  0  0  0
   -1.2255   -2.7711   30.2782 S   0  0  0  0  0  0  0  0  0  0  0  0
    1.4008   -2.2010   31.4687 Cl  0  0  0  0  0  0  0  0  0  0  0  0
    1.1630   -3.9661   29.2713 C   0  0  0  0  0  0  0  0  0  0  0  0
    0.6572   -5.2673   29.7472 N   0  0  0  0  0  0  0  0  0  0  0  0
    0.7461   -5.7216   31.0395 C   0  0  0  0  0  0  0  0  0  0  0  0
    1.7154   -5.2822   31.8664 C   0  0  0  0  0  0  0  0  0  0  0  0
    1.5766   -5.3458   33.2945 C   0  0  0  0  0  0  0  0  0  0  0  0
    0.5314   -6.0130   33.7981 C   0  0  0  0  0  0  0  0  0  0  0  0
    0.3916   -5.7784   35.1775 N   0  0  0  0  0  0  0  0  0  0  0  0
   -0.6304   -4.8245   35.6544 C   0  0  0  0  0  0  0  0  0  0  0  0
   -0.5163   -4.5908   37.1629 C   0  0  0  0  0  0  0  0  0  0  0  0
    0.9165   -4.7321   37.6816 C   0  0  0  0  0  0  0  0  0  0  0  0
    1.5394   -6.1356   37.4929 C   0  0  0  0  0  0  0  0  0  0  0  0
    1.6157   -7.0005   38.7260 C   0  0  0  0  0  0  0  0  0  0  0  0
    0.5511   -7.1083   39.6306 C   0  0  0  0  0  0  0  0  0  0  0  0
    0.6605   -7.9213   40.7579 C   0  0  0  0  0  0  0  0  0  0  0  0
    1.8323   -8.6355   40.9950 C   0  0  0  0  0  0  0  0  0  0  0  0
    2.8950   -8.5460   40.1010 C   0  0  0  0  0  0  0  0  0  0  0  0
    2.7872   -7.7366   38.9717 C   0  0  0  0  0  0  0  0  0  0  0  0
    0.7471   -7.0868   36.1766 S   0  0  0  0  0  0  0  0  0  0  0  0
   -0.5394   -7.6044   36.5787 O   0  0  0  0  0  0  0  0  0  0  0  0
    1.7374   -7.8946   35.4850 O   0  0  0  0  0  0  0  0  0  0  0  0
   -0.3091   -6.7347   32.9579 N   0  0  0  0  0  0  0  0  0  0  0  0
   -1.2980   -7.6484   33.1781 C   0  0  0  0  0  0  0  0  0  0  0  0
   -1.7955   -8.0602   32.0288 N   0  0  0  0  0  0  0  0  0  0  0  0
   -1.1431   -7.3952   31.0178 N   0  0  0  0  0  0  0  0  0  0  0  0
   -0.2344   -6.6228   31.5785 C   0  0  0  0  0  0  0  0  0  0  0  0
   -0.5259   -0.5149   30.1309 H   0  0  0  0  0  0  0  0  0  0  0  0
    0.9837    6.3272   29.4123 H   0  0  0  0  0  0  0  0  0  0  0  0
    2.0891    8.5340   30.3404 H   0  0  0  0  0  0  0  0  0  0  0  0
    3.5296    8.0436   32.4958 H   0  0  0  0  0  0  0  0  0  0  0  0
    1.0452    3.8862   28.7602 H   0  0  0  0  0  0  0  0  0  0  0  0
    0.8709    2.2330   27.0793 H   0  0  0  0  0  0  0  0  0  0  0  0
    1.3048    0.5283   27.0301 H   0  0  0  0  0  0  0  0  0  0  0  0
   -1.1550   -0.1378   26.8892 H   0  0  0  0  0  0  0  0  0  0  0  0
   -1.3096    1.4727   26.1347 H   0  0  0  0  0  0  0  0  0  0  0  0
   -1.4798    2.5796   28.2578 H   0  0  0  0  0  0  0  0  0  0  0  0
   -2.1148    1.0264   28.8801 H   0  0  0  0  0  0  0  0  0  0  0  0
   -1.6059   -3.0158   29.0075 H   0  0  0  0  0  0  0  0  0  0  0  0
    2.2598   -3.9634   29.3220 H   0  0  0  0  0  0  0  0  0  0  0  0
    0.9322   -3.9503   28.2010 H   0  0  0  0  0  0  0  0  0  0  0  0
   -0.2186   -5.5526   29.2968 H   0  0  0  0  0  0  0  0  0  0  0  0
    2.5416   -4.6767   31.5098 H   0  0  0  0  0  0  0  0  0  0  0  0
    2.2492   -4.7476   33.9013 H   0  0  0  0  0  0  0  0  0  0  0  0
   -0.4847   -3.8681   35.1379 H   0  0  0  0  0  0  0  0  0  0  0  0
   -1.6275   -5.1927   35.4096 H   0  0  0  0  0  0  0  0  0  0  0  0
   -1.1697   -5.2903   37.6947 H   0  0  0  0  0  0  0  0  0  0  0  0
   -0.9000   -3.5908   37.3977 H   0  0  0  0  0  0  0  0  0  0  0  0
    0.9654   -4.4215   38.7321 H   0  0  0  0  0  0  0  0  0  0  0  0
    1.5364   -4.0076   37.1351 H   0  0  0  0  0  0  0  0  0  0  0  0
    2.5652   -5.9649   37.1362 H   0  0  0  0  0  0  0  0  0  0  0  0
   -0.3850   -6.5806   39.4661 H   0  0  0  0  0  0  0  0  0  0  0  0
   -0.1763   -8.0067   41.4463 H   0  0  0  0  0  0  0  0  0  0  0  0
    1.9104   -9.2704   41.8731 H   0  0  0  0  0  0  0  0  0  0  0  0
    3.8055   -9.1109   40.2807 H   0  0  0  0  0  0  0  0  0  0  0  0
    3.6272   -7.6922   38.2813 H   0  0  0  0  0  0  0  0  0  0  0  0
   -1.5929   -7.9978   34.1590 H   0  0  0  0  0  0  0  0  0  0  0  0
  1  2  2  0
  2  3  1  0
  3  4  1  0
  4  5  1  0
  5  6  2  0
  6  7  1  0
  7  8  2  0
  8  9  1  0
  9 10  2  0
 10 11  1  0
 11 12  2  0
 12 13  1  0
  8 14  1  0
  4 15  1  0
 15 16  1  0
 16 17  1  0
  2 18  1  0
 18 19  1  0
 18 20  1  0
 18 21  1  0
 21 22  1  0
 22 23  1  0
 23 24  2  0
 24 25  1  0
 25 26  2  0
 26 27  1  0
 27 28  1  0
 28 29  1  0
 29 30  1  0
 30 31  1  0
 31 32  1  0
 32 33  2  0
 33 34  1  0
 34 35  2  0
 35 36  1  0
 36 37  2  0
 31 38  1  0
 38 39  2  0
 38 40  2  0
 26 41  1  0
 41 42  1  0
 42 43  2  0
 43 44  1  0
 44 45  2  0
 17  4  1  0
 45 23  1  0
 14  5  1  0
 38 27  1  0
 45 41  1  0
 13  9  1  0
 37 32  1  0
  3 46  1  0
 10 47  1  0
 11 48  1  0
 12 49  1  0
 14 50  1  0
 15 51  1  0
 15 52  1  0
 16 53  1  0
 16 54  1  0
 17 55  1  0
 17 56  1  0
 19 57  1  0
 21 58  1  0
 21 59  1  0
 22 60  1  0
 24 61  1  0
 25 62  1  0
 28 63  1  0
 28 64  1  0
 29 65  1  0
 29 66  1  0
 30 67  1  0
 30 68  1  0
 31 69  1  0
 33 70  1  0
 34 71  1  0
 35 72  1  0
 36 73  1  0
 37 74  1  0
 42 75  1  0
M  END
>  <Energy>  (780) 
173.73319236294961

>  <compound_id>  (780) 
4338

>  <target_id>  (780) 
1

>  <reference_id>  (780) 
153

>  <inspiration_ids>  (780) 
[153, 130]

>  <energy_score>  (780) 
-64.32028112598215

>  <distance_score>  (780) 
1.530693276098357

>  <path>  (780) 
/opt/xchem-fragalysis-2/maxwin/BulkDock/SCRATCH/505735/C4338-P153/C4338-P153.minimised.mol

>  <scratch_subdir>  (780) 
/opt/xchem-fragalysis-2/maxwin/BulkDock/SCRATCH/505735/C4338-P153

>  <fragmenstein_runtime>  (780) 
29.03927445411682

>  <fragmenstein_outcome>  (780) 
too moved

>  <fragmenstein_mode>  (780) 
expansion

>  <fragmenstein_error>  (780) 


$$$$
C4338-P130
     RDKit          3D

 75 81  0  0  0  0  0  0  0  0999 V2000
   -1.5939   -2.2438   28.7254 O   0  0  0  0  0  0  0  0  0  0  0  0
   -0.6670   -2.0443   29.3996 C   0  0  0  0  0  0  0  0  0  0  0  0
   -0.1113   -0.7213   29.9704 N   0  0  0  0  0  0  0  0  0  0  0  0
   -0.6325    0.6074   29.9082 C   0  0  0  0  0  0  0  0  0  0  0  0
   -1.1873    0.7299   31.3573 C   0  0  0  0  0  0  0  0  0  0  0  0
   -0.5302    1.2488   32.3722 N   0  0  0  0  0  0  0  0  0  0  0  0
   -1.2183    0.9344   33.5231 N   0  0  0  0  0  0  0  0  0  0  0  0
   -2.2602    0.1989   33.1934 C   0  0  0  0  0  0  0  0  0  0  0  0
   -3.2408   -0.3023   34.1054 C   0  0  0  0  0  0  0  0  0  0  0  0
   -3.2526   -0.1214   35.4756 C   0  0  0  0  0  0  0  0  0  0  0  0
   -4.4047   -0.6892   36.0945 C   0  0  0  0  0  0  0  0  0  0  0  0
   -5.2356   -1.2861   35.1746 C   0  0  0  0  0  0  0  0  0  0  0  0
   -4.6028   -1.2034   33.5918 S   0  0  0  0  0  0  0  0  0  0  0  0
   -2.2678    0.0357   31.8349 N   0  0  0  0  0  0  0  0  0  0  0  0
    0.3401    1.6894   29.4321 C   0  0  0  0  0  0  0  0  0  0  0  0
   -0.2915    1.5577   28.0288 C   0  0  0  0  0  0  0  0  0  0  0  0
   -1.5335    0.9603   28.7105 C   0  0  0  0  0  0  0  0  0  0  0  0
    0.2123   -3.1506   29.9972 C   0  0  0  0  0  0  0  0  0  0  0  0
   -0.6188   -3.3257   31.6978 S   0  0  0  0  0  0  0  0  0  0  0  0
    1.9177   -2.5824   30.2064 Cl  0  0  0  0  0  0  0  0  0  0  0  0
    0.1718   -4.4337   29.1686 C   0  0  0  0  0  0  0  0  0  0  0  0
    1.1142   -5.5050   29.6078 N   0  0  0  0  0  0  0  0  0  0  0  0
    1.0689   -5.9572   30.9172 C   0  0  0  0  0  0  0  0  0  0  0  0
    2.0252   -5.5276   31.7723 C   0  0  0  0  0  0  0  0  0  0  0  0
    1.8296   -5.5276   33.1978 C   0  0  0  0  0  0  0  0  0  0  0  0
    0.7076   -6.0747   33.6838 C   0  0  0  0  0  0  0  0  0  0  0  0
    0.5434   -5.7917   35.0568 N   0  0  0  0  0  0  0  0  0  0  0  0
   -0.5521   -4.9009   35.4970 C   0  0  0  0  0  0  0  0  0  0  0  0
   -0.4838   -4.6265   37.0029 C   0  0  0  0  0  0  0  0  0  0  0  0
    0.9372   -4.7084   37.5638 C   0  0  0  0  0  0  0  0  0  0  0  0
    1.6007   -6.0992   37.4362 C   0  0  0  0  0  0  0  0  0  0  0  0
    1.6230   -6.9625   38.6717 C   0  0  0  0  0  0  0  0  0  0  0  0
    0.5624   -6.9967   39.5866 C   0  0  0  0  0  0  0  0  0  0  0  0
    0.6114   -7.8434   40.6933 C   0  0  0  0  0  0  0  0  0  0  0  0
    1.7188   -8.6612   40.9006 C   0  0  0  0  0  0  0  0  0  0  0  0
    2.7831   -8.6334   40.0053 C   0  0  0  0  0  0  0  0  0  0  0  0
    2.7360   -7.7913   38.8971 C   0  0  0  0  0  0  0  0  0  0  0  0
    0.9033   -7.0832   36.0836 S   0  0  0  0  0  0  0  0  0  0  0  0
   -0.3777   -7.6626   36.4210 O   0  0  0  0  0  0  0  0  0  0  0  0
    1.9466   -7.8643   35.4423 O   0  0  0  0  0  0  0  0  0  0  0  0
   -0.1675   -6.7444   32.8345 N   0  0  0  0  0  0  0  0  0  0  0  0
   -1.2538   -7.5353   33.0639 C   0  0  0  0  0  0  0  0  0  0  0  0
   -1.7552   -7.9603   31.9238 N   0  0  0  0  0  0  0  0  0  0  0  0
   -0.9993   -7.4275   30.9049 N   0  0  0  0  0  0  0  0  0  0  0  0
   -0.0287   -6.7216   31.4531 C   0  0  0  0  0  0  0  0  0  0  0  0
    0.7667   -0.9017   30.4548 H   0  0  0  0  0  0  0  0  0  0  0  0
   -2.4761    0.4177   36.0077 H   0  0  0  0  0  0  0  0  0  0  0  0
   -4.6181   -0.6428   37.1555 H   0  0  0  0  0  0  0  0  0  0  0  0
   -6.1847   -1.7709   35.3514 H   0  0  0  0  0  0  0  0  0  0  0  0
   -2.9025   -0.5328   31.2936 H   0  0  0  0  0  0  0  0  0  0  0  0
    0.1873    2.6769   29.8838 H   0  0  0  0  0  0  0  0  0  0  0  0
    1.4063    1.4483   29.4834 H   0  0  0  0  0  0  0  0  0  0  0  0
    0.2358    0.8506   27.3795 H   0  0  0  0  0  0  0  0  0  0  0  0
   -0.4485    2.4933   27.4867 H   0  0  0  0  0  0  0  0  0  0  0  0
   -2.3004    1.7118   28.9140 H   0  0  0  0  0  0  0  0  0  0  0  0
   -1.9937    0.1436   28.1521 H   0  0  0  0  0  0  0  0  0  0  0  0
   -0.2272   -2.1305   32.1660 H   0  0  0  0  0  0  0  0  0  0  0  0
    0.4537   -4.1701   28.1448 H   0  0  0  0  0  0  0  0  0  0  0  0
   -0.8377   -4.8332   29.1175 H   0  0  0  0  0  0  0  0  0  0  0  0
    2.0586   -5.2068   29.3620 H   0  0  0  0  0  0  0  0  0  0  0  0
    2.8800   -4.9535   31.4275 H   0  0  0  0  0  0  0  0  0  0  0  0
    2.5341   -4.9770   33.8128 H   0  0  0  0  0  0  0  0  0  0  0  0
   -0.4684   -3.9493   34.9602 H   0  0  0  0  0  0  0  0  0  0  0  0
   -1.5122   -5.3531   35.2525 H   0  0  0  0  0  0  0  0  0  0  0  0
   -1.1283   -5.3353   37.5333 H   0  0  0  0  0  0  0  0  0  0  0  0
   -0.9074   -3.6349   37.2027 H   0  0  0  0  0  0  0  0  0  0  0  0
    0.9511   -4.3629   38.6043 H   0  0  0  0  0  0  0  0  0  0  0  0
    1.5507   -3.9848   37.0090 H   0  0  0  0  0  0  0  0  0  0  0  0
    2.6427   -5.9096   37.1414 H   0  0  0  0  0  0  0  0  0  0  0  0
   -0.3262   -6.3879   39.4481 H   0  0  0  0  0  0  0  0  0  0  0  0
   -0.2251   -7.8857   41.3860 H   0  0  0  0  0  0  0  0  0  0  0  0
    1.7386   -9.3433   41.7468 H   0  0  0  0  0  0  0  0  0  0  0  0
    3.6358   -9.2885   40.1606 H   0  0  0  0  0  0  0  0  0  0  0  0
    3.5712   -7.8069   38.1997 H   0  0  0  0  0  0  0  0  0  0  0  0
   -1.6126   -7.7884   34.0510 H   0  0  0  0  0  0  0  0  0  0  0  0
  1  2  2  0
  2  3  1  0
  3  4  1  0
  4  5  1  0
  5  6  2  0
  6  7  1  0
  7  8  2  0
  8  9  1  0
  9 10  2  0
 10 11  1  0
 11 12  2  0
 12 13  1  0
  8 14  1  0
  4 15  1  0
 15 16  1  0
 16 17  1  0
  2 18  1  0
 18 19  1  0
 18 20  1  0
 18 21  1  0
 21 22  1  0
 22 23  1  0
 23 24  2  0
 24 25  1  0
 25 26  2  0
 26 27  1  0
 27 28  1  0
 28 29  1  0
 29 30  1  0
 30 31  1  0
 31 32  1  0
 32 33  2  0
 33 34  1  0
 34 35  2  0
 35 36  1  0
 36 37  2  0
 31 38  1  0
 38 39  2  0
 38 40  2  0
 26 41  1  0
 41 42  1  0
 42 43  2  0
 43 44  1  0
 44 45  2  0
 17  4  1  0
 45 23  1  0
 14  5  1  0
 38 27  1  0
 45 41  1  0
 13  9  1  0
 37 32  1  0
  3 46  1  0
 10 47  1  0
 11 48  1  0
 12 49  1  0
 14 50  1  0
 15 51  1  0
 15 52  1  0
 16 53  1  0
 16 54  1  0
 17 55  1  0
 17 56  1  0
 19 57  1  0
 21 58  1  0
 21 59  1  0
 22 60  1  0
 24 61  1  0
 25 62  1  0
 28 63  1  0
 28 64  1  0
 29 65  1  0
 29 66  1  0
 30 67  1  0
 30 68  1  0
 31 69  1  0
 33 70  1  0
 34 71  1  0
 35 72  1  0
 36 73  1  0
 37 74  1  0
 42 75  1  0
M  END
>  <Energy>  (781) 
177.98379316635828

>  <compound_id>  (781) 
4338

>  <target_id>  (781) 
1

>  <reference_id>  (781) 
130

>  <inspiration_ids>  (781) 
[153, 130]

>  <energy_score>  (781) 
-60.06968032257265

>  <distance_score>  (781) 
1.2773271396457584

>  <path>  (781) 
/opt/xchem-fragalysis-2/maxwin/BulkDock/SCRATCH/505735/C4338-P130/C4338-P130.minimised.mol

>  <scratch_subdir>  (781) 
/opt/xchem-fragalysis-2/maxwin/BulkDock/SCRATCH/505735/C4338-P130

>  <fragmenstein_runtime>  (781) 
30.235652446746826

>  <fragmenstein_outcome>  (781) 
too moved

>  <fragmenstein_mode>  (781) 
expansion

>  <fragmenstein_error>  (781) 


$$$$
C2647-P153
     RDKit          3D

 63 68  0  0  0  0  0  0  0  0999 V2000
   -2.4358   -3.3918   32.0691 O   0  0  0  0  0  0  0  0  0  0  0  0
   -2.0476   -2.2909   32.1545 C   0  0  0  0  0  0  0  0  0  0  0  0
   -2.4397   -1.4103   33.3618 C   0  0  0  0  0  0  0  0  0  0  0  0
   -3.4926   -0.0054   32.8899 S   0  0  0  0  0  0  0  0  0  0  0  0
   -1.0021   -0.8273   34.2357 Cl  0  0  0  0  0  0  0  0  0  0  0  0
   -1.1755   -1.4512   31.2424 N   0  0  0  0  0  0  0  0  0  0  0  0
   -0.7021   -1.6237   30.0650 C   0  0  0  0  0  0  0  0  0  0  0  0
    0.1208   -0.0305   30.2846 C   0  0  0  0  0  0  0  0  0  0  0  0
    0.1697    1.0700   31.1602 C   0  0  0  0  0  0  0  0  0  0  0  0
    1.1295    1.9710   30.7134 C   0  0  0  0  0  0  0  0  0  0  0  0
    1.9352    1.4333   29.2676 S   0  0  0  0  0  0  0  0  0  0  0  0
    1.0171    0.0600   29.2802 C   0  0  0  0  0  0  0  0  0  0  0  0
    0.8748   -1.1520   28.4957 C   0  0  0  0  0  0  0  0  0  0  0  0
   -0.2277   -2.1191   29.6394 C   0  0  0  0  0  0  0  0  0  0  0  0
    0.9479   -3.0854   30.4097 N   0  0  0  0  0  0  0  0  0  0  0  0
    0.5534   -4.2677   31.0409 C   0  0  0  0  0  0  0  0  0  0  0  0
    0.7119   -4.3434   32.4929 C   0  0  0  0  0  0  0  0  0  0  0  0
    0.2710   -5.4198   33.1857 C   0  0  0  0  0  0  0  0  0  0  0  0
    0.4910   -5.3034   34.6081 N   0  0  0  0  0  0  0  0  0  0  0  0
   -0.2699   -4.2399   35.3258 C   0  0  0  0  0  0  0  0  0  0  0  0
   -0.1400   -4.3049   36.8451 C   0  0  0  0  0  0  0  0  0  0  0  0
    1.2927   -4.5989   37.2743 C   0  0  0  0  0  0  0  0  0  0  0  0
    1.8072   -5.9842   36.8427 C   0  0  0  0  0  0  0  0  0  0  0  0
    1.9274   -6.9715   37.9875 C   0  0  0  0  0  0  0  0  0  0  0  0
    0.8529   -7.2557   38.8441 C   0  0  0  0  0  0  0  0  0  0  0  0
    1.0128   -8.1207   39.9277 C   0  0  0  0  0  0  0  0  0  0  0  0
    2.2479   -8.7132   40.1741 C   0  0  0  0  0  0  0  0  0  0  0  0
    3.3222   -8.4516   39.3289 C   0  0  0  0  0  0  0  0  0  0  0  0
    3.1637   -7.5888   38.2424 C   0  0  0  0  0  0  0  0  0  0  0  0
    0.8445   -6.7140   35.4917 S   0  0  0  0  0  0  0  0  0  0  0  0
   -0.4297   -7.2041   35.9691 O   0  0  0  0  0  0  0  0  0  0  0  0
    1.7208   -7.5354   34.6724 O   0  0  0  0  0  0  0  0  0  0  0  0
   -0.3269   -6.4758   32.4727 N   0  0  0  0  0  0  0  0  0  0  0  0
   -0.9895   -7.6235   32.8214 C   0  0  0  0  0  0  0  0  0  0  0  0
   -1.3789   -8.2806   31.7472 N   0  0  0  0  0  0  0  0  0  0  0  0
   -0.9977   -7.5608   30.6495 N   0  0  0  0  0  0  0  0  0  0  0  0
   -0.3997   -6.4742   31.0828 C   0  0  0  0  0  0  0  0  0  0  0  0
    0.0764   -5.3389   30.3829 C   0  0  0  0  0  0  0  0  0  0  0  0
   -3.0021   -2.0220   34.0699 H   0  0  0  0  0  0  0  0  0  0  0  0
   -3.6500    0.4466   34.1418 H   0  0  0  0  0  0  0  0  0  0  0  0
   -1.9390   -1.8818   29.8294 H   0  0  0  0  0  0  0  0  0  0  0  0
   -1.3288   -0.7477   29.3300 H   0  0  0  0  0  0  0  0  0  0  0  0
   -0.4256    1.2112   32.0506 H   0  0  0  0  0  0  0  0  0  0  0  0
    1.4139    2.9167   31.1539 H   0  0  0  0  0  0  0  0  0  0  0  0
    0.3013   -0.9906   27.5789 H   0  0  0  0  0  0  0  0  0  0  0  0
    1.7937   -1.7152   28.3228 H   0  0  0  0  0  0  0  0  0  0  0  0
   -0.7301   -3.0200   28.9681 H   0  0  0  0  0  0  0  0  0  0  0  0
    1.5939   -3.3379   29.6568 H   0  0  0  0  0  0  0  0  0  0  0  0
    1.1988   -3.4977   32.9686 H   0  0  0  0  0  0  0  0  0  0  0  0
   -1.3243   -4.2715   35.0435 H   0  0  0  0  0  0  0  0  0  0  0  0
    0.1400   -3.2765   35.0109 H   0  0  0  0  0  0  0  0  0  0  0  0
   -0.4558   -3.3418   37.2645 H   0  0  0  0  0  0  0  0  0  0  0  0
   -0.8278   -5.0485   37.2605 H   0  0  0  0  0  0  0  0  0  0  0  0
    1.3919   -4.4588   38.3576 H   0  0  0  0  0  0  0  0  0  0  0  0
    1.9422   -3.8354   36.8239 H   0  0  0  0  0  0  0  0  0  0  0  0
    2.8067   -5.8320   36.4121 H   0  0  0  0  0  0  0  0  0  0  0  0
   -0.1300   -6.8211   38.6759 H   0  0  0  0  0  0  0  0  0  0  0  0
    0.1644   -8.3453   40.5689 H   0  0  0  0  0  0  0  0  0  0  0  0
    2.3659   -9.3886   41.0163 H   0  0  0  0  0  0  0  0  0  0  0  0
    4.2852   -8.9194   39.5151 H   0  0  0  0  0  0  0  0  0  0  0  0
    4.0226   -7.3980   37.6021 H   0  0  0  0  0  0  0  0  0  0  0  0
   -1.1827   -7.9442   33.8338 H   0  0  0  0  0  0  0  0  0  0  0  0
   -0.0475   -5.3196   29.3125 H   0  0  0  0  0  0  0  0  0  0  0  0
  1  2  2  0
  2  3  1  0
  3  4  1  0
  3  5  1  0
  2  6  1  0
  6  7  1  0
  7  8  1  0
  8  9  1  0
  9 10  2  0
 10 11  1  0
 11 12  1  0
 12 13  1  0
 13 14  1  0
 14 15  1  0
 15 16  1  0
 16 17  1  0
 17 18  2  0
 18 19  1  0
 19 20  1  0
 20 21  1  0
 21 22  1  0
 22 23  1  0
 23 24  1  0
 24 25  2  0
 25 26  1  0
 26 27  2  0
 27 28  1  0
 28 29  2  0
 23 30  1  0
 30 31  2  0
 30 32  2  0
 18 33  1  0
 33 34  1  0
 34 35  2  0
 35 36  1  0
 36 37  2  0
 37 38  1  0
 14  6  1  0
 38 16  2  0
 12  8  2  0
 30 19  1  0
 37 33  1  0
 29 24  1  0
  3 39  1  0
  4 40  1  0
  7 41  1  0
  7 42  1  0
  9 43  1  0
 10 44  1  0
 13 45  1  0
 13 46  1  0
 14 47  1  0
 15 48  1  0
 17 49  1  0
 20 50  1  0
 20 51  1  0
 21 52  1  0
 21 53  1  0
 22 54  1  0
 22 55  1  0
 23 56  1  0
 25 57  1  0
 26 58  1  0
 27 59  1  0
 28 60  1  0
 29 61  1  0
 34 62  1  0
 38 63  1  0
M  END
>  <Energy>  (782) 
894.18687827433689

>  <compound_id>  (782) 
2647

>  <target_id>  (782) 
1

>  <reference_id>  (782) 
153

>  <inspiration_ids>  (782) 
[153, 131]

>  <energy_score>  (782) 
742.8863133797113

>  <distance_score>  (782) 
1.6363183841010414

>  <path>  (782) 
/opt/xchem-fragalysis-2/maxwin/BulkDock/SCRATCH/505735/C2647-P153/C2647-P153.minimised.mol

>  <scratch_subdir>  (782) 
/opt/xchem-fragalysis-2/maxwin/BulkDock/SCRATCH/505735/C2647-P153

>  <fragmenstein_runtime>  (782) 
16.24377727508545

>  <fragmenstein_outcome>  (782) 
too moved

>  <fragmenstein_mode>  (782) 
expansion

>  <fragmenstein_error>  (782) 


$$$$
C2647-P131
     RDKit          3D

 63 68  0  0  0  0  0  0  0  0999 V2000
   -2.5702   -3.3397   31.9653 O   0  0  0  0  0  0  0  0  0  0  0  0
   -2.2749   -2.2141   31.9811 C   0  0  0  0  0  0  0  0  0  0  0  0
   -2.7687   -1.1920   33.0255 C   0  0  0  0  0  0  0  0  0  0  0  0
   -4.4003   -1.6236   33.6821 S   0  0  0  0  0  0  0  0  0  0  0  0
   -1.5807   -1.0680   34.3380 Cl  0  0  0  0  0  0  0  0  0  0  0  0
   -1.4124   -1.3630   31.0387 N   0  0  0  0  0  0  0  0  0  0  0  0
   -0.8560   -1.5700   29.9045 C   0  0  0  0  0  0  0  0  0  0  0  0
   -0.0162    0.0097   30.1598 C   0  0  0  0  0  0  0  0  0  0  0  0
    0.0598    1.0769   31.0731 C   0  0  0  0  0  0  0  0  0  0  0  0
    1.0242    1.9814   30.6438 C   0  0  0  0  0  0  0  0  0  0  0  0
    1.8515    1.4485   29.2070 S   0  0  0  0  0  0  0  0  0  0  0  0
    0.9141    0.0888   29.1856 C   0  0  0  0  0  0  0  0  0  0  0  0
    0.7822   -1.1280   28.4042 C   0  0  0  0  0  0  0  0  0  0  0  0
   -0.3416   -2.0865   29.5427 C   0  0  0  0  0  0  0  0  0  0  0  0
    0.8223   -2.9439   30.4344 N   0  0  0  0  0  0  0  0  0  0  0  0
    0.4841   -4.1500   31.0498 C   0  0  0  0  0  0  0  0  0  0  0  0
    0.6472   -4.2307   32.5008 C   0  0  0  0  0  0  0  0  0  0  0  0
    0.2760   -5.3371   33.1890 C   0  0  0  0  0  0  0  0  0  0  0  0
    0.5265   -5.2289   34.6119 N   0  0  0  0  0  0  0  0  0  0  0  0
   -0.1724   -4.1303   35.3448 C   0  0  0  0  0  0  0  0  0  0  0  0
   -0.0962   -4.2447   36.8638 C   0  0  0  0  0  0  0  0  0  0  0  0
    1.3159   -4.5795   37.3254 C   0  0  0  0  0  0  0  0  0  0  0  0
    1.8202   -5.9549   36.8573 C   0  0  0  0  0  0  0  0  0  0  0  0
    1.9304   -6.9730   37.9766 C   0  0  0  0  0  0  0  0  0  0  0  0
    0.8521   -7.2633   38.8267 C   0  0  0  0  0  0  0  0  0  0  0  0
    0.9953   -8.1691   39.8787 C   0  0  0  0  0  0  0  0  0  0  0  0
    2.2188   -8.7942   40.1014 C   0  0  0  0  0  0  0  0  0  0  0  0
    3.2979   -8.5227   39.2651 C   0  0  0  0  0  0  0  0  0  0  0  0
    3.1552   -7.6208   38.2086 C   0  0  0  0  0  0  0  0  0  0  0  0
    0.8556   -6.6494   35.4886 S   0  0  0  0  0  0  0  0  0  0  0  0
   -0.4257   -7.1310   35.9561 O   0  0  0  0  0  0  0  0  0  0  0  0
    1.7315   -7.4738   34.6717 O   0  0  0  0  0  0  0  0  0  0  0  0
   -0.2617   -6.4203   32.4637 N   0  0  0  0  0  0  0  0  0  0  0  0
   -0.8642   -7.6068   32.7940 C   0  0  0  0  0  0  0  0  0  0  0  0
   -1.1992   -8.2786   31.7099 N   0  0  0  0  0  0  0  0  0  0  0  0
   -0.8463   -7.5314   30.6227 N   0  0  0  0  0  0  0  0  0  0  0  0
   -0.3244   -6.4122   31.0720 C   0  0  0  0  0  0  0  0  0  0  0  0
    0.0840   -5.2452   30.3817 C   0  0  0  0  0  0  0  0  0  0  0  0
   -2.8586   -0.2019   32.5697 H   0  0  0  0  0  0  0  0  0  0  0  0
   -4.0401   -2.8676   34.0546 H   0  0  0  0  0  0  0  0  0  0  0  0
   -2.0715   -1.8240   29.5711 H   0  0  0  0  0  0  0  0  0  0  0  0
   -1.4155   -0.7061   29.1210 H   0  0  0  0  0  0  0  0  0  0  0  0
   -0.5246    1.1970   31.9737 H   0  0  0  0  0  0  0  0  0  0  0  0
    1.3121    2.9179   31.1023 H   0  0  0  0  0  0  0  0  0  0  0  0
    0.2185   -0.9612   27.4857 H   0  0  0  0  0  0  0  0  0  0  0  0
    1.6992   -1.6976   28.2445 H   0  0  0  0  0  0  0  0  0  0  0  0
   -0.7794   -3.0365   28.9025 H   0  0  0  0  0  0  0  0  0  0  0  0
    1.5738   -3.1379   29.7670 H   0  0  0  0  0  0  0  0  0  0  0  0
    1.0948   -3.3646   32.9772 H   0  0  0  0  0  0  0  0  0  0  0  0
   -1.2167   -4.0762   35.0371 H   0  0  0  0  0  0  0  0  0  0  0  0
    0.3134   -3.1875   35.0705 H   0  0  0  0  0  0  0  0  0  0  0  0
   -0.4035   -3.2872   37.3019 H   0  0  0  0  0  0  0  0  0  0  0  0
   -0.8120   -4.9848   37.2361 H   0  0  0  0  0  0  0  0  0  0  0  0
    1.3825   -4.4800   38.4157 H   0  0  0  0  0  0  0  0  0  0  0  0
    1.9927   -3.8115   36.9258 H   0  0  0  0  0  0  0  0  0  0  0  0
    2.8217   -5.7999   36.4323 H   0  0  0  0  0  0  0  0  0  0  0  0
   -0.1214   -6.8022   38.6739 H   0  0  0  0  0  0  0  0  0  0  0  0
    0.1428   -8.4009   40.5118 H   0  0  0  0  0  0  0  0  0  0  0  0
    2.3231   -9.5038   40.9168 H   0  0  0  0  0  0  0  0  0  0  0  0
    4.2511   -9.0166   39.4329 H   0  0  0  0  0  0  0  0  0  0  0  0
    4.0155   -7.4263   37.5717 H   0  0  0  0  0  0  0  0  0  0  0  0
   -1.0565   -7.9445   33.8009 H   0  0  0  0  0  0  0  0  0  0  0  0
   -0.0160   -5.2342   29.3085 H   0  0  0  0  0  0  0  0  0  0  0  0
  1  2  2  0
  2  3  1  0
  3  4  1  0
  3  5  1  0
  2  6  1  0
  6  7  1  0
  7  8  1  0
  8  9  1  0
  9 10  2  0
 10 11  1  0
 11 12  1  0
 12 13  1  0
 13 14  1  0
 14 15  1  0
 15 16  1  0
 16 17  1  0
 17 18  2  0
 18 19  1  0
 19 20  1  0
 20 21  1  0
 21 22  1  0
 22 23  1  0
 23 24  1  0
 24 25  2  0
 25 26  1  0
 26 27  2  0
 27 28  1  0
 28 29  2  0
 23 30  1  0
 30 31  2  0
 30 32  2  0
 18 33  1  0
 33 34  1  0
 34 35  2  0
 35 36  1  0
 36 37  2  0
 37 38  1  0
 14  6  1  0
 38 16  2  0
 12  8  2  0
 30 19  1  0
 37 33  1  0
 29 24  1  0
  3 39  1  0
  4 40  1  0
  7 41  1  0
  7 42  1  0
  9 43  1  0
 10 44  1  0
 13 45  1  0
 13 46  1  0
 14 47  1  0
 15 48  1  0
 17 49  1  0
 20 50  1  0
 20 51  1  0
 21 52  1  0
 21 53  1  0
 22 54  1  0
 22 55  1  0
 23 56  1  0
 25 57  1  0
 26 58  1  0
 27 59  1  0
 28 60  1  0
 29 61  1  0
 34 62  1  0
 38 63  1  0
M  END
>  <Energy>  (783) 
885.86630061902838

>  <compound_id>  (783) 
2647

>  <target_id>  (783) 
1

>  <reference_id>  (783) 
131

>  <inspiration_ids>  (783) 
[153, 131]

>  <energy_score>  (783) 
734.5657357243979

>  <distance_score>  (783) 
1.6314061480834094

>  <path>  (783) 
/opt/xchem-fragalysis-2/maxwin/BulkDock/SCRATCH/505735/C2647-P131/C2647-P131.minimised.mol

>  <scratch_subdir>  (783) 
/opt/xchem-fragalysis-2/maxwin/BulkDock/SCRATCH/505735/C2647-P131

>  <fragmenstein_runtime>  (783) 
24.156692266464233

>  <fragmenstein_outcome>  (783) 
too moved

>  <fragmenstein_mode>  (783) 
expansion

>  <fragmenstein_error>  (783) 


$$$$
C4341-P153
     RDKit          3D

 58 62  0  0  0  0  0  0  0  0999 V2000
    2.8333   -1.4823   28.3755 O   0  0  0  0  0  0  0  0  0  0  0  0
    1.9035   -2.4599   28.8891 S   0  0  0  0  0  0  0  0  0  0  0  0
    1.5638   -3.6718   28.1788 O   0  0  0  0  0  0  0  0  0  0  0  0
    2.4509   -2.9055   30.4406 N   0  0  0  0  0  0  0  0  0  0  0  0
    2.7155   -4.3167   30.6969 C   0  0  0  0  0  0  0  0  0  0  0  0
    1.5158   -5.0307   31.2867 C   0  0  0  0  0  0  0  0  0  0  0  0
    1.2653   -4.9285   32.7268 C   0  0  0  0  0  0  0  0  0  0  0  0
    0.3685   -5.7456   33.3248 C   0  0  0  0  0  0  0  0  0  0  0  0
    0.2690   -5.5006   34.7309 N   0  0  0  0  0  0  0  0  0  0  0  0
   -0.4870   -4.3337   35.2271 C   0  0  0  0  0  0  0  0  0  0  0  0
    0.3486   -3.6485   36.3146 C   0  0  0  0  0  0  0  0  0  0  0  0
    1.2651   -4.5964   37.1136 C   0  0  0  0  0  0  0  0  0  0  0  0
    0.5933   -5.9461   37.3627 C   0  0  0  0  0  0  0  0  0  0  0  0
    1.2649   -6.8339   38.3811 C   0  0  0  0  0  0  0  0  0  0  0  0
    0.5237   -7.2444   39.5034 C   0  0  0  0  0  0  0  0  0  0  0  0
    1.0946   -8.0471   40.4891 C   0  0  0  0  0  0  0  0  0  0  0  0
    2.4200   -8.4494   40.3715 C   0  0  0  0  0  0  0  0  0  0  0  0
    3.1719   -8.0472   39.2691 C   0  0  0  0  0  0  0  0  0  0  0  0
    2.6014   -7.2401   38.2806 C   0  0  0  0  0  0  0  0  0  0  0  0
    0.2986   -6.8320   35.8045 S   0  0  0  0  0  0  0  0  0  0  0  0
   -1.0549   -7.3373   35.8587 O   0  0  0  0  0  0  0  0  0  0  0  0
    1.4252   -7.6409   35.3790 O   0  0  0  0  0  0  0  0  0  0  0  0
   -0.3431   -6.6689   32.5404 N   0  0  0  0  0  0  0  0  0  0  0  0
   -1.2718   -7.6397   32.7983 C   0  0  0  0  0  0  0  0  0  0  0  0
   -1.6937   -8.1898   31.6790 N   0  0  0  0  0  0  0  0  0  0  0  0
   -1.0239   -7.6031   30.6426 N   0  0  0  0  0  0  0  0  0  0  0  0
   -0.2045   -6.7123   31.1544 C   0  0  0  0  0  0  0  0  0  0  0  0
    0.7650   -5.8721   30.5461 C   0  0  0  0  0  0  0  0  0  0  0  0
    0.4209   -1.6130   29.4024 C   0  0  0  0  0  0  0  0  0  0  0  0
    0.5728   -0.3444   29.9801 C   0  0  0  0  0  0  0  0  0  0  0  0
   -0.3423    0.0684   30.9403 C   0  0  0  0  0  0  0  0  0  0  0  0
   -1.3843   -0.7872   31.2833 C   0  0  0  0  0  0  0  0  0  0  0  0
   -2.1720   -0.5343   32.3639 O   0  0  0  0  0  0  0  0  0  0  0  0
   -1.6178   -1.9703   30.5892 C   0  0  0  0  0  0  0  0  0  0  0  0
   -0.7206   -2.3847   29.6151 C   0  0  0  0  0  0  0  0  0  0  0  0
    1.9611   -2.4215   31.1906 H   0  0  0  0  0  0  0  0  0  0  0  0
    3.0914   -4.8203   29.7990 H   0  0  0  0  0  0  0  0  0  0  0  0
    3.5462   -4.3624   31.4125 H   0  0  0  0  0  0  0  0  0  0  0  0
    1.8446   -4.2036   33.2919 H   0  0  0  0  0  0  0  0  0  0  0  0
   -0.7151   -3.6219   34.4260 H   0  0  0  0  0  0  0  0  0  0  0  0
   -1.4479   -4.6615   35.6374 H   0  0  0  0  0  0  0  0  0  0  0  0
   -0.3295   -3.1233   36.9981 H   0  0  0  0  0  0  0  0  0  0  0  0
    0.9782   -2.8757   35.8562 H   0  0  0  0  0  0  0  0  0  0  0  0
    1.5309   -4.1125   38.0613 H   0  0  0  0  0  0  0  0  0  0  0  0
    2.2044   -4.7378   36.5633 H   0  0  0  0  0  0  0  0  0  0  0  0
   -0.4192   -5.7230   37.7307 H   0  0  0  0  0  0  0  0  0  0  0  0
   -0.5163   -6.9466   39.6226 H   0  0  0  0  0  0  0  0  0  0  0  0
    0.5012   -8.3656   41.3418 H   0  0  0  0  0  0  0  0  0  0  0  0
    2.8670   -9.0798   41.1350 H   0  0  0  0  0  0  0  0  0  0  0  0
    4.2066   -8.3667   39.1750 H   0  0  0  0  0  0  0  0  0  0  0  0
    3.2105   -6.9486   37.4280 H   0  0  0  0  0  0  0  0  0  0  0  0
   -1.6222   -7.9255   33.7757 H   0  0  0  0  0  0  0  0  0  0  0  0
    0.9429   -5.9840   29.4845 H   0  0  0  0  0  0  0  0  0  0  0  0
    1.4651    0.2490   29.7872 H   0  0  0  0  0  0  0  0  0  0  0  0
   -0.1840    1.0100   31.4559 H   0  0  0  0  0  0  0  0  0  0  0  0
   -1.7902    0.2088   32.8589 H   0  0  0  0  0  0  0  0  0  0  0  0
   -2.4661   -2.5941   30.8520 H   0  0  0  0  0  0  0  0  0  0  0  0
   -0.8464   -3.3524   29.1334 H   0  0  0  0  0  0  0  0  0  0  0  0
  1  2  2  0
  2  3  2  0
  2  4  1  0
  4  5  1  0
  5  6  1  0
  6  7  1  0
  7  8  2  0
  8  9  1  0
  9 10  1  0
 10 11  1  0
 11 12  1  0
 12 13  1  0
 13 14  1  0
 14 15  2  0
 15 16  1  0
 16 17  2  0
 17 18  1  0
 18 19  2  0
 13 20  1  0
 20 21  2  0
 20 22  2  0
  8 23  1  0
 23 24  1  0
 24 25  2  0
 25 26  1  0
 26 27  2  0
 27 28  1  0
  2 29  1  0
 29 30  2  0
 30 31  1  0
 31 32  2  0
 32 33  1  0
 32 34  1  0
 34 35  2  0
 28  6  2  0
 35 29  1  0
 20  9  1  0
 27 23  1  0
 19 14  1  0
  4 36  1  0
  5 37  1  0
  5 38  1  0
  7 39  1  0
 10 40  1  0
 10 41  1  0
 11 42  1  0
 11 43  1  0
 12 44  1  0
 12 45  1  0
 13 46  1  0
 15 47  1  0
 16 48  1  0
 17 49  1  0
 18 50  1  0
 19 51  1  0
 24 52  1  0
 28 53  1  0
 30 54  1  0
 31 55  1  0
 33 56  1  0
 34 57  1  0
 35 58  1  0
M  END
>  <Energy>  (784) 
18.616364713194312

>  <compound_id>  (784) 
4341

>  <target_id>  (784) 
1

>  <reference_id>  (784) 
153

>  <inspiration_ids>  (784) 
[153, 134]

>  <energy_score>  (784) 
-44.69037996102492

>  <distance_score>  (784) 
1.0639720838561775

>  <path>  (784) 
/opt/xchem-fragalysis-2/maxwin/BulkDock/SCRATCH/505735/C4341-P153/C4341-P153.minimised.mol

>  <scratch_subdir>  (784) 
/opt/xchem-fragalysis-2/maxwin/BulkDock/SCRATCH/505735/C4341-P153

>  <fragmenstein_runtime>  (784) 
13.010915279388428

>  <fragmenstein_outcome>  (784) 
too moved

>  <fragmenstein_mode>  (784) 
expansion

>  <fragmenstein_error>  (784) 


$$$$
C4341-P134
     RDKit          3D

 58 62  0  0  0  0  0  0  0  0999 V2000
    2.7311   -1.3765   28.2849 O   0  0  0  0  0  0  0  0  0  0  0  0
    1.8371   -2.3760   28.8195 S   0  0  0  0  0  0  0  0  0  0  0  0
    1.5230   -3.6030   28.1227 O   0  0  0  0  0  0  0  0  0  0  0  0
    2.4120   -2.7892   30.3703 N   0  0  0  0  0  0  0  0  0  0  0  0
    2.6792   -4.1927   30.6569 C   0  0  0  0  0  0  0  0  0  0  0  0
    1.4883   -4.9111   31.2614 C   0  0  0  0  0  0  0  0  0  0  0  0
    1.2562   -4.8166   32.7058 C   0  0  0  0  0  0  0  0  0  0  0  0
    0.3697   -5.6390   33.3130 C   0  0  0  0  0  0  0  0  0  0  0  0
    0.2974   -5.4101   34.7244 N   0  0  0  0  0  0  0  0  0  0  0  0
   -0.4370   -4.2449   35.2523 C   0  0  0  0  0  0  0  0  0  0  0  0
    0.4348   -3.5737   36.3196 C   0  0  0  0  0  0  0  0  0  0  0  0
    1.3408   -4.5397   37.1092 C   0  0  0  0  0  0  0  0  0  0  0  0
    0.6535   -5.8829   37.3491 C   0  0  0  0  0  0  0  0  0  0  0  0
    1.3139   -6.7853   38.3632 C   0  0  0  0  0  0  0  0  0  0  0  0
    0.5724   -7.1829   39.4902 C   0  0  0  0  0  0  0  0  0  0  0  0
    1.1315   -8.0015   40.4699 C   0  0  0  0  0  0  0  0  0  0  0  0
    2.4474   -8.4307   40.3433 C   0  0  0  0  0  0  0  0  0  0  0  0
    3.2010   -8.0392   39.2382 C   0  0  0  0  0  0  0  0  0  0  0  0
    2.6413   -7.2176   38.2550 C   0  0  0  0  0  0  0  0  0  0  0  0
    0.3507   -6.7521   35.7828 S   0  0  0  0  0  0  0  0  0  0  0  0
   -0.9959   -7.2743   35.8487 O   0  0  0  0  0  0  0  0  0  0  0  0
    1.4858   -7.5381   35.3380 O   0  0  0  0  0  0  0  0  0  0  0  0
   -0.3510   -6.5596   32.5331 N   0  0  0  0  0  0  0  0  0  0  0  0
   -1.2882   -7.5205   32.7963 C   0  0  0  0  0  0  0  0  0  0  0  0
   -1.7091   -8.0816   31.6815 N   0  0  0  0  0  0  0  0  0  0  0  0
   -1.0348   -7.5080   30.6415 N   0  0  0  0  0  0  0  0  0  0  0  0
   -0.2196   -6.6085   31.1466 C   0  0  0  0  0  0  0  0  0  0  0  0
    0.7385   -5.7616   30.5299 C   0  0  0  0  0  0  0  0  0  0  0  0
    0.3389   -1.5664   29.3471 C   0  0  0  0  0  0  0  0  0  0  0  0
    0.4799   -0.3094   29.9516 C   0  0  0  0  0  0  0  0  0  0  0  0
   -0.4074    0.0508   30.9569 C   0  0  0  0  0  0  0  0  0  0  0  0
   -1.4179   -0.8381   31.3103 C   0  0  0  0  0  0  0  0  0  0  0  0
   -2.1684   -0.6392   32.4287 O   0  0  0  0  0  0  0  0  0  0  0  0
   -1.6492   -2.0045   30.5889 C   0  0  0  0  0  0  0  0  0  0  0  0
   -0.7779   -2.3699   29.5728 C   0  0  0  0  0  0  0  0  0  0  0  0
    1.9337   -2.2900   31.1181 H   0  0  0  0  0  0  0  0  0  0  0  0
    3.0596   -4.7095   29.7683 H   0  0  0  0  0  0  0  0  0  0  0  0
    3.5098   -4.2141   31.3736 H   0  0  0  0  0  0  0  0  0  0  0  0
    1.8431   -4.0948   33.2668 H   0  0  0  0  0  0  0  0  0  0  0  0
   -0.6885   -3.5257   34.4652 H   0  0  0  0  0  0  0  0  0  0  0  0
   -1.3826   -4.5718   35.6962 H   0  0  0  0  0  0  0  0  0  0  0  0
   -0.2178   -3.0280   37.0119 H   0  0  0  0  0  0  0  0  0  0  0  0
    1.0754   -2.8196   35.8455 H   0  0  0  0  0  0  0  0  0  0  0  0
    1.6160   -4.0666   38.0597 H   0  0  0  0  0  0  0  0  0  0  0  0
    2.2766   -4.6891   36.5549 H   0  0  0  0  0  0  0  0  0  0  0  0
   -0.3568   -5.6524   37.7186 H   0  0  0  0  0  0  0  0  0  0  0  0
   -0.4593   -6.8626   39.6179 H   0  0  0  0  0  0  0  0  0  0  0  0
    0.5364   -8.3117   41.3244 H   0  0  0  0  0  0  0  0  0  0  0  0
    2.8854   -9.0741   41.1010 H   0  0  0  0  0  0  0  0  0  0  0  0
    4.2283   -8.3796   39.1366 H   0  0  0  0  0  0  0  0  0  0  0  0
    3.2514   -6.9364   37.3996 H   0  0  0  0  0  0  0  0  0  0  0  0
   -1.6450   -7.7875   33.7761 H   0  0  0  0  0  0  0  0  0  0  0  0
    0.9099   -5.8747   29.4676 H   0  0  0  0  0  0  0  0  0  0  0  0
    1.3532    0.3090   29.7501 H   0  0  0  0  0  0  0  0  0  0  0  0
   -0.2451    0.9773   31.4981 H   0  0  0  0  0  0  0  0  0  0  0  0
   -1.8383    0.1547   32.8796 H   0  0  0  0  0  0  0  0  0  0  0  0
   -2.4670   -2.6597   30.8689 H   0  0  0  0  0  0  0  0  0  0  0  0
   -0.8944   -3.3302   29.0747 H   0  0  0  0  0  0  0  0  0  0  0  0
  1  2  2  0
  2  3  2  0
  2  4  1  0
  4  5  1  0
  5  6  1  0
  6  7  1  0
  7  8  2  0
  8  9  1  0
  9 10  1  0
 10 11  1  0
 11 12  1  0
 12 13  1  0
 13 14  1  0
 14 15  2  0
 15 16  1  0
 16 17  2  0
 17 18  1  0
 18 19  2  0
 13 20  1  0
 20 21  2  0
 20 22  2  0
  8 23  1  0
 23 24  1  0
 24 25  2  0
 25 26  1  0
 26 27  2  0
 27 28  1  0
  2 29  1  0
 29 30  2  0
 30 31  1  0
 31 32  2  0
 32 33  1  0
 32 34  1  0
 34 35  2  0
 28  6  2  0
 35 29  1  0
 20  9  1  0
 27 23  1  0
 19 14  1  0
  4 36  1  0
  5 37  1  0
  5 38  1  0
  7 39  1  0
 10 40  1  0
 10 41  1  0
 11 42  1  0
 11 43  1  0
 12 44  1  0
 12 45  1  0
 13 46  1  0
 15 47  1  0
 16 48  1  0
 17 49  1  0
 18 50  1  0
 19 51  1  0
 24 52  1  0
 28 53  1  0
 30 54  1  0
 31 55  1  0
 33 56  1  0
 34 57  1  0
 35 58  1  0
M  END
>  <Energy>  (785) 
19.803134398600342

>  <compound_id>  (785) 
4341

>  <target_id>  (785) 
1

>  <reference_id>  (785) 
134

>  <inspiration_ids>  (785) 
[153, 134]

>  <energy_score>  (785) 
-43.50361027561988

>  <distance_score>  (785) 
1.053993736162262

>  <path>  (785) 
/opt/xchem-fragalysis-2/maxwin/BulkDock/SCRATCH/505735/C4341-P134/C4341-P134.minimised.mol

>  <scratch_subdir>  (785) 
/opt/xchem-fragalysis-2/maxwin/BulkDock/SCRATCH/505735/C4341-P134

>  <fragmenstein_runtime>  (785) 
25.53860354423523

>  <fragmenstein_outcome>  (785) 
too moved

>  <fragmenstein_mode>  (785) 
expansion

>  <fragmenstein_error>  (785) 


$$$$
C4341-P153
     RDKit          3D

 58 62  0  0  0  0  0  0  0  0999 V2000
    4.0179   -1.9808   29.5788 O   0  0  0  0  0  0  0  0  0  0  0  0
    2.9300   -2.5755   28.8330 S   0  0  0  0  0  0  0  0  0  0  0  0
    3.0331   -2.8645   27.4259 O   0  0  0  0  0  0  0  0  0  0  0  0
    2.6162   -4.0552   29.5673 N   0  0  0  0  0  0  0  0  0  0  0  0
    2.5412   -4.0906   31.0183 C   0  0  0  0  0  0  0  0  0  0  0  0
    1.4563   -5.0420   31.4786 C   0  0  0  0  0  0  0  0  0  0  0  0
    1.1985   -5.0124   32.9173 C   0  0  0  0  0  0  0  0  0  0  0  0
    0.2949   -5.8453   33.4683 C   0  0  0  0  0  0  0  0  0  0  0  0
    0.1596   -5.6176   34.8668 N   0  0  0  0  0  0  0  0  0  0  0  0
   -0.6108   -4.4640   35.3655 C   0  0  0  0  0  0  0  0  0  0  0  0
    0.2272   -3.7558   36.4350 C   0  0  0  0  0  0  0  0  0  0  0  0
    1.1690   -4.6847   37.2260 C   0  0  0  0  0  0  0  0  0  0  0  0
    0.5295   -6.0510   37.4799 C   0  0  0  0  0  0  0  0  0  0  0  0
    1.2394   -6.9178   38.4888 C   0  0  0  0  0  0  0  0  0  0  0  0
    0.5302   -7.3310   39.6299 C   0  0  0  0  0  0  0  0  0  0  0  0
    1.1374   -8.1142   40.6088 C   0  0  0  0  0  0  0  0  0  0  0  0
    2.4670   -8.4937   40.4648 C   0  0  0  0  0  0  0  0  0  0  0  0
    3.1877   -8.0872   39.3434 C   0  0  0  0  0  0  0  0  0  0  0  0
    2.5810   -7.2988   38.3621 C   0  0  0  0  0  0  0  0  0  0  0  0
    0.2458   -6.9457   35.9244 S   0  0  0  0  0  0  0  0  0  0  0  0
   -1.0910   -7.4918   35.9748 O   0  0  0  0  0  0  0  0  0  0  0  0
    1.3965   -7.7110   35.4822 O   0  0  0  0  0  0  0  0  0  0  0  0
   -0.3906   -6.7504   32.6481 N   0  0  0  0  0  0  0  0  0  0  0  0
   -1.3134   -7.7346   32.8664 C   0  0  0  0  0  0  0  0  0  0  0  0
   -1.7026   -8.2655   31.7255 N   0  0  0  0  0  0  0  0  0  0  0  0
   -1.0210   -7.6447   30.7151 N   0  0  0  0  0  0  0  0  0  0  0  0
   -0.2256   -6.7544   31.2648 C   0  0  0  0  0  0  0  0  0  0  0  0
    0.7197   -5.8593   30.6942 C   0  0  0  0  0  0  0  0  0  0  0  0
    1.4201   -1.6883   29.1888 C   0  0  0  0  0  0  0  0  0  0  0  0
    0.1989   -2.3570   29.0481 C   0  0  0  0  0  0  0  0  0  0  0  0
   -0.8673   -1.9912   29.8635 C   0  0  0  0  0  0  0  0  0  0  0  0
   -0.7001   -0.9636   30.7852 C   0  0  0  0  0  0  0  0  0  0  0  0
   -1.6705   -0.7922   31.7257 O   0  0  0  0  0  0  0  0  0  0  0  0
    0.4571   -0.1898   30.8071 C   0  0  0  0  0  0  0  0  0  0  0  0
    1.5275   -0.5485   29.9941 C   0  0  0  0  0  0  0  0  0  0  0  0
    3.0016   -4.8426   29.0539 H   0  0  0  0  0  0  0  0  0  0  0  0
    3.5114   -4.4062   31.4156 H   0  0  0  0  0  0  0  0  0  0  0  0
    2.3260   -3.0977   31.4275 H   0  0  0  0  0  0  0  0  0  0  0  0
    1.7500   -4.2946   33.5194 H   0  0  0  0  0  0  0  0  0  0  0  0
   -1.5568   -4.8102   35.7946 H   0  0  0  0  0  0  0  0  0  0  0  0
   -0.8669   -3.7627   34.5638 H   0  0  0  0  0  0  0  0  0  0  0  0
   -0.4501   -3.2378   37.1248 H   0  0  0  0  0  0  0  0  0  0  0  0
    0.8376   -2.9756   35.9631 H   0  0  0  0  0  0  0  0  0  0  0  0
    2.1069   -4.8051   36.6683 H   0  0  0  0  0  0  0  0  0  0  0  0
    1.4319   -4.1958   38.1721 H   0  0  0  0  0  0  0  0  0  0  0  0
   -0.4849   -5.8551   37.8575 H   0  0  0  0  0  0  0  0  0  0  0  0
   -0.5118   -7.0503   39.7701 H   0  0  0  0  0  0  0  0  0  0  0  0
    0.5694   -8.4348   41.4779 H   0  0  0  0  0  0  0  0  0  0  0  0
    2.9424   -9.1086   41.2238 H   0  0  0  0  0  0  0  0  0  0  0  0
    4.2261   -8.3877   39.2296 H   0  0  0  0  0  0  0  0  0  0  0  0
    3.1661   -7.0019   37.4946 H   0  0  0  0  0  0  0  0  0  0  0  0
   -1.6767   -8.0408   33.8342 H   0  0  0  0  0  0  0  0  0  0  0  0
    0.8440   -5.8844   29.6204 H   0  0  0  0  0  0  0  0  0  0  0  0
    0.1073   -3.2357   28.4150 H   0  0  0  0  0  0  0  0  0  0  0  0
   -1.7934   -2.5579   29.8270 H   0  0  0  0  0  0  0  0  0  0  0  0
   -1.4260   -0.0382   32.2858 H   0  0  0  0  0  0  0  0  0  0  0  0
    0.5729    0.6358   31.5024 H   0  0  0  0  0  0  0  0  0  0  0  0
    2.4772   -0.0274   30.0987 H   0  0  0  0  0  0  0  0  0  0  0  0
  1  2  2  0
  2  3  2  0
  2  4  1  0
  4  5  1  0
  5  6  1  0
  6  7  1  0
  7  8  2  0
  8  9  1  0
  9 10  1  0
 10 11  1  0
 11 12  1  0
 12 13  1  0
 13 14  1  0
 14 15  2  0
 15 16  1  0
 16 17  2  0
 17 18  1  0
 18 19  2  0
 13 20  1  0
 20 21  2  0
 20 22  2  0
  8 23  1  0
 23 24  1  0
 24 25  2  0
 25 26  1  0
 26 27  2  0
 27 28  1  0
  2 29  1  0
 29 30  2  0
 30 31  1  0
 31 32  2  0
 32 33  1  0
 32 34  1  0
 34 35  2  0
 28  6  2  0
 35 29  1  0
 20  9  1  0
 27 23  1  0
 19 14  1  0
  4 36  1  0
  5 37  1  0
  5 38  1  0
  7 39  1  0
 10 40  1  0
 10 41  1  0
 11 42  1  0
 11 43  1  0
 12 44  1  0
 12 45  1  0
 13 46  1  0
 15 47  1  0
 16 48  1  0
 17 49  1  0
 18 50  1  0
 19 51  1  0
 24 52  1  0
 28 53  1  0
 30 54  1  0
 31 55  1  0
 33 56  1  0
 34 57  1  0
 35 58  1  0
M  END
>  <Energy>  (786) 
12.244543846807467

>  <compound_id>  (786) 
4341

>  <target_id>  (786) 
1

>  <reference_id>  (786) 
153

>  <inspiration_ids>  (786) 
[153, 135]

>  <energy_score>  (786) 
-51.062200827411715

>  <distance_score>  (786) 
1.2369733446630256

>  <path>  (786) 
/opt/xchem-fragalysis-2/maxwin/BulkDock/SCRATCH/505735/C4341-P153/C4341-P153.minimised.mol

>  <scratch_subdir>  (786) 
/opt/xchem-fragalysis-2/maxwin/BulkDock/SCRATCH/505735/C4341-P153

>  <fragmenstein_runtime>  (786) 
12.554282426834106

>  <fragmenstein_outcome>  (786) 
too moved

>  <fragmenstein_mode>  (786) 
expansion

>  <fragmenstein_error>  (786) 


$$$$
C4341-P135
     RDKit          3D

 58 62  0  0  0  0  0  0  0  0999 V2000
    4.0463   -2.0599   29.4876 O   0  0  0  0  0  0  0  0  0  0  0  0
    2.9405   -2.6629   28.7758 S   0  0  0  0  0  0  0  0  0  0  0  0
    2.9979   -2.9433   27.3640 O   0  0  0  0  0  0  0  0  0  0  0  0
    2.6711   -4.1522   29.5042 N   0  0  0  0  0  0  0  0  0  0  0  0
    2.6560   -4.2153   30.9550 C   0  0  0  0  0  0  0  0  0  0  0  0
    1.5500   -5.1306   31.4377 C   0  0  0  0  0  0  0  0  0  0  0  0
    1.2830   -5.0554   32.8744 C   0  0  0  0  0  0  0  0  0  0  0  0
    0.3497   -5.8472   33.4349 C   0  0  0  0  0  0  0  0  0  0  0  0
    0.2220   -5.6156   34.8319 N   0  0  0  0  0  0  0  0  0  0  0  0
   -0.5280   -4.4580   35.3460 C   0  0  0  0  0  0  0  0  0  0  0  0
    0.3464   -3.7372   36.3778 C   0  0  0  0  0  0  0  0  0  0  0  0
    1.2775   -4.6634   37.1852 C   0  0  0  0  0  0  0  0  0  0  0  0
    0.6299   -6.0232   37.4453 C   0  0  0  0  0  0  0  0  0  0  0  0
    1.3180   -6.8958   38.4622 C   0  0  0  0  0  0  0  0  0  0  0  0
    0.5815   -7.3303   39.5776 C   0  0  0  0  0  0  0  0  0  0  0  0
    1.1564   -8.1562   40.5397 C   0  0  0  0  0  0  0  0  0  0  0  0
    2.4829   -8.5495   40.4095 C   0  0  0  0  0  0  0  0  0  0  0  0
    3.2351   -8.1096   39.3224 C   0  0  0  0  0  0  0  0  0  0  0  0
    2.6596   -7.2828   38.3548 C   0  0  0  0  0  0  0  0  0  0  0  0
    0.3730   -6.9317   35.8901 S   0  0  0  0  0  0  0  0  0  0  0  0
   -0.9287   -7.5589   35.9538 O   0  0  0  0  0  0  0  0  0  0  0  0
    1.5479   -7.6567   35.4448 O   0  0  0  0  0  0  0  0  0  0  0  0
   -0.3585   -6.7452   32.6292 N   0  0  0  0  0  0  0  0  0  0  0  0
   -1.3304   -7.6745   32.8667 C   0  0  0  0  0  0  0  0  0  0  0  0
   -1.7074   -8.2493   31.7439 N   0  0  0  0  0  0  0  0  0  0  0  0
   -0.9801   -7.6994   30.7236 N   0  0  0  0  0  0  0  0  0  0  0  0
   -0.1708   -6.8076   31.2520 C   0  0  0  0  0  0  0  0  0  0  0  0
    0.8065   -5.9574   30.6687 C   0  0  0  0  0  0  0  0  0  0  0  0
    1.4357   -1.7919   29.1842 C   0  0  0  0  0  0  0  0  0  0  0  0
    0.2127   -2.4638   29.0769 C   0  0  0  0  0  0  0  0  0  0  0  0
   -0.8534   -2.0641   29.8770 C   0  0  0  0  0  0  0  0  0  0  0  0
   -0.6826   -1.0021   30.7570 C   0  0  0  0  0  0  0  0  0  0  0  0
   -1.6600   -0.7784   31.6790 O   0  0  0  0  0  0  0  0  0  0  0  0
    0.4824   -0.2390   30.7578 C   0  0  0  0  0  0  0  0  0  0  0  0
    1.5518   -0.6319   29.9584 C   0  0  0  0  0  0  0  0  0  0  0  0
    3.0260   -4.9316   28.9574 H   0  0  0  0  0  0  0  0  0  0  0  0
    3.6254   -4.5821   31.3071 H   0  0  0  0  0  0  0  0  0  0  0  0
    2.5009   -3.2211   31.3887 H   0  0  0  0  0  0  0  0  0  0  0  0
    1.8577   -4.3474   33.4661 H   0  0  0  0  0  0  0  0  0  0  0  0
   -1.4531   -4.8011   35.8203 H   0  0  0  0  0  0  0  0  0  0  0  0
   -0.8144   -3.7662   34.5465 H   0  0  0  0  0  0  0  0  0  0  0  0
   -0.3065   -3.1809   37.0613 H   0  0  0  0  0  0  0  0  0  0  0  0
    0.9677   -2.9880   35.8715 H   0  0  0  0  0  0  0  0  0  0  0  0
    2.2183   -4.7936   36.6346 H   0  0  0  0  0  0  0  0  0  0  0  0
    1.5368   -4.1675   38.1285 H   0  0  0  0  0  0  0  0  0  0  0  0
   -0.3895   -5.8238   37.8067 H   0  0  0  0  0  0  0  0  0  0  0  0
   -0.4584   -7.0418   39.7086 H   0  0  0  0  0  0  0  0  0  0  0  0
    0.5658   -8.5140   41.3790 H   0  0  0  0  0  0  0  0  0  0  0  0
    2.9259   -9.2132   41.1474 H   0  0  0  0  0  0  0  0  0  0  0  0
    4.2701   -8.4260   39.2209 H   0  0  0  0  0  0  0  0  0  0  0  0
    3.2676   -6.9691   37.5094 H   0  0  0  0  0  0  0  0  0  0  0  0
   -1.7370   -7.9011   33.8376 H   0  0  0  0  0  0  0  0  0  0  0  0
    0.9477   -6.0231   29.5986 H   0  0  0  0  0  0  0  0  0  0  0  0
    0.1157   -3.3603   28.4711 H   0  0  0  0  0  0  0  0  0  0  0  0
   -1.7863   -2.6199   29.8550 H   0  0  0  0  0  0  0  0  0  0  0  0
   -1.5043    0.0956   32.0725 H   0  0  0  0  0  0  0  0  0  0  0  0
    0.6028    0.6077   31.4264 H   0  0  0  0  0  0  0  0  0  0  0  0
    2.5029   -0.1096   30.0407 H   0  0  0  0  0  0  0  0  0  0  0  0
  1  2  2  0
  2  3  2  0
  2  4  1  0
  4  5  1  0
  5  6  1  0
  6  7  1  0
  7  8  2  0
  8  9  1  0
  9 10  1  0
 10 11  1  0
 11 12  1  0
 12 13  1  0
 13 14  1  0
 14 15  2  0
 15 16  1  0
 16 17  2  0
 17 18  1  0
 18 19  2  0
 13 20  1  0
 20 21  2  0
 20 22  2  0
  8 23  1  0
 23 24  1  0
 24 25  2  0
 25 26  1  0
 26 27  2  0
 27 28  1  0
  2 29  1  0
 29 30  2  0
 30 31  1  0
 31 32  2  0
 32 33  1  0
 32 34  1  0
 34 35  2  0
 28  6  2  0
 35 29  1  0
 20  9  1  0
 27 23  1  0
 19 14  1  0
  4 36  1  0
  5 37  1  0
  5 38  1  0
  7 39  1  0
 10 40  1  0
 10 41  1  0
 11 42  1  0
 11 43  1  0
 12 44  1  0
 12 45  1  0
 13 46  1  0
 15 47  1  0
 16 48  1  0
 17 49  1  0
 18 50  1  0
 19 51  1  0
 24 52  1  0
 28 53  1  0
 30 54  1  0
 31 55  1  0
 33 56  1  0
 34 57  1  0
 35 58  1  0
M  END
>  <Energy>  (787) 
9.9655995138936522

>  <compound_id>  (787) 
4341

>  <target_id>  (787) 
1

>  <reference_id>  (787) 
135

>  <inspiration_ids>  (787) 
[153, 135]

>  <energy_score>  (787) 
-53.34114516032414

>  <distance_score>  (787) 
1.2783183195672876

>  <path>  (787) 
/opt/xchem-fragalysis-2/maxwin/BulkDock/SCRATCH/505735/C4341-P135/C4341-P135.minimised.mol

>  <scratch_subdir>  (787) 
/opt/xchem-fragalysis-2/maxwin/BulkDock/SCRATCH/505735/C4341-P135

>  <fragmenstein_runtime>  (787) 
12.695842742919922

>  <fragmenstein_outcome>  (787) 
too moved

>  <fragmenstein_mode>  (787) 
expansion

>  <fragmenstein_error>  (787) 


$$$$
C4343-P153
     RDKit          3D

 57 61  0  0  0  0  0  0  0  0999 V2000
    0.5980    0.9690   27.4440 C   0  0  0  0  0  0  0  0  0  0  0  0
   -0.0340    0.3533   28.5753 N   0  0  0  0  0  0  0  0  0  0  0  0
   -1.2844    0.6662   28.9971 C   0  0  0  0  0  0  0  0  0  0  0  0
   -1.5225   -0.1093   30.0956 C   0  0  0  0  0  0  0  0  0  0  0  0
   -0.3433   -0.8489   30.2767 C   0  0  0  0  0  0  0  0  0  0  0  0
   -0.1313   -1.9083   31.6383 S   0  0  0  0  0  0  0  0  0  0  0  0
   -0.0348   -1.0036   32.7645 O   0  0  0  0  0  0  0  0  0  0  0  0
   -1.1922   -2.8870   31.5324 O   0  0  0  0  0  0  0  0  0  0  0  0
    1.3765   -2.6457   31.4683 N   0  0  0  0  0  0  0  0  0  0  0  0
    1.4233   -3.8265   30.6023 C   0  0  0  0  0  0  0  0  0  0  0  0
    0.9018   -5.0300   31.3243 C   0  0  0  0  0  0  0  0  0  0  0  0
    1.0538   -5.0836   32.7742 C   0  0  0  0  0  0  0  0  0  0  0  0
    0.3211   -5.9553   33.4857 C   0  0  0  0  0  0  0  0  0  0  0  0
    0.4115   -5.6869   34.8834 N   0  0  0  0  0  0  0  0  0  0  0  0
   -0.5091   -4.6505   35.4283 C   0  0  0  0  0  0  0  0  0  0  0  0
   -0.3606   -4.4653   36.9383 C   0  0  0  0  0  0  0  0  0  0  0  0
    1.0748   -4.6702   37.4161 C   0  0  0  0  0  0  0  0  0  0  0  0
    1.6216   -6.0975   37.2029 C   0  0  0  0  0  0  0  0  0  0  0  0
    1.6777   -6.9603   38.4451 C   0  0  0  0  0  0  0  0  0  0  0  0
    0.6029   -7.0561   39.3413 C   0  0  0  0  0  0  0  0  0  0  0  0
    0.6976   -7.8500   40.4851 C   0  0  0  0  0  0  0  0  0  0  0  0
    1.8665   -8.5578   40.7505 C   0  0  0  0  0  0  0  0  0  0  0  0
    2.9396   -8.4810   39.8675 C   0  0  0  0  0  0  0  0  0  0  0  0
    2.8456   -7.6908   38.7214 C   0  0  0  0  0  0  0  0  0  0  0  0
    0.7510   -6.9986   35.8963 S   0  0  0  0  0  0  0  0  0  0  0  0
   -0.5335   -7.4743   36.3567 O   0  0  0  0  0  0  0  0  0  0  0  0
    1.6913   -7.8472   35.1831 O   0  0  0  0  0  0  0  0  0  0  0  0
   -0.4626   -6.8971   32.8126 N   0  0  0  0  0  0  0  0  0  0  0  0
   -1.3106   -7.8879   33.2110 C   0  0  0  0  0  0  0  0  0  0  0  0
   -1.8093   -8.5095   32.1616 N   0  0  0  0  0  0  0  0  0  0  0  0
   -1.3141   -7.9190   31.0333 N   0  0  0  0  0  0  0  0  0  0  0  0
   -0.5243   -6.9478   31.4232 C   0  0  0  0  0  0  0  0  0  0  0  0
    0.1554   -5.9508   30.6866 C   0  0  0  0  0  0  0  0  0  0  0  0
    0.6040   -0.5573   29.3578 N   0  0  0  0  0  0  0  0  0  0  0  0
    1.3804    0.3034   27.0748 H   0  0  0  0  0  0  0  0  0  0  0  0
    1.0414    1.9124   27.7727 H   0  0  0  0  0  0  0  0  0  0  0  0
   -0.1507    1.1550   26.6719 H   0  0  0  0  0  0  0  0  0  0  0  0
   -1.8804    1.4056   28.4795 H   0  0  0  0  0  0  0  0  0  0  0  0
   -2.4090   -0.1332   30.7101 H   0  0  0  0  0  0  0  0  0  0  0  0
    2.0242   -1.9194   31.1483 H   0  0  0  0  0  0  0  0  0  0  0  0
    2.4749   -4.0029   30.3441 H   0  0  0  0  0  0  0  0  0  0  0  0
    0.9025   -3.6345   29.6572 H   0  0  0  0  0  0  0  0  0  0  0  0
    1.6787   -4.3392   33.2601 H   0  0  0  0  0  0  0  0  0  0  0  0
   -0.2861   -3.6950   34.9381 H   0  0  0  0  0  0  0  0  0  0  0  0
   -1.5395   -4.9167   35.1937 H   0  0  0  0  0  0  0  0  0  0  0  0
   -0.6986   -3.4566   37.2049 H   0  0  0  0  0  0  0  0  0  0  0  0
   -1.0337   -5.1500   37.4648 H   0  0  0  0  0  0  0  0  0  0  0  0
    1.1655   -4.3693   38.4669 H   0  0  0  0  0  0  0  0  0  0  0  0
    1.7127   -3.9716   36.8569 H   0  0  0  0  0  0  0  0  0  0  0  0
    2.6466   -5.9800   36.8239 H   0  0  0  0  0  0  0  0  0  0  0  0
   -0.3323   -6.5330   39.1573 H   0  0  0  0  0  0  0  0  0  0  0  0
   -0.1492   -7.9252   41.1623 H   0  0  0  0  0  0  0  0  0  0  0  0
    1.9337   -9.1784   41.6395 H   0  0  0  0  0  0  0  0  0  0  0  0
    3.8487   -9.0410   40.0685 H   0  0  0  0  0  0  0  0  0  0  0  0
    3.6966   -7.6550   38.0442 H   0  0  0  0  0  0  0  0  0  0  0  0
   -1.5306   -8.1334   34.2395 H   0  0  0  0  0  0  0  0  0  0  0  0
   -0.0404   -5.8841   29.6264 H   0  0  0  0  0  0  0  0  0  0  0  0
  1  2  1  0
  2  3  1  0
  3  4  2  0
  4  5  1  0
  5  6  1  0
  6  7  2  0
  6  8  2  0
  6  9  1  0
  9 10  1  0
 10 11  1  0
 11 12  1  0
 12 13  2  0
 13 14  1  0
 14 15  1  0
 15 16  1  0
 16 17  1  0
 17 18  1  0
 18 19  1  0
 19 20  2  0
 20 21  1  0
 21 22  2  0
 22 23  1  0
 23 24  2  0
 18 25  1  0
 25 26  2  0
 25 27  2  0
 13 28  1  0
 28 29  1  0
 29 30  2  0
 30 31  1  0
 31 32  2  0
 32 33  1  0
  5 34  2  0
 34  2  1  0
 33 11  2  0
 25 14  1  0
 32 28  1  0
 24 19  1  0
  1 35  1  0
  1 36  1  0
  1 37  1  0
  3 38  1  0
  4 39  1  0
  9 40  1  0
 10 41  1  0
 10 42  1  0
 12 43  1  0
 15 44  1  0
 15 45  1  0
 16 46  1  0
 16 47  1  0
 17 48  1  0
 17 49  1  0
 18 50  1  0
 20 51  1  0
 21 52  1  0
 22 53  1  0
 23 54  1  0
 24 55  1  0
 29 56  1  0
 33 57  1  0
M  END
>  <Energy>  (788) 
72.451219107089273

>  <compound_id>  (788) 
4343

>  <target_id>  (788) 
1

>  <reference_id>  (788) 
153

>  <inspiration_ids>  (788) 
[153, 141]

>  <energy_score>  (788) 
-74.82766506639584

>  <distance_score>  (788) 
1.592440604613711

>  <path>  (788) 
/opt/xchem-fragalysis-2/maxwin/BulkDock/SCRATCH/505735/C4343-P153/C4343-P153.minimised.mol

>  <scratch_subdir>  (788) 
/opt/xchem-fragalysis-2/maxwin/BulkDock/SCRATCH/505735/C4343-P153

>  <fragmenstein_runtime>  (788) 
12.332528114318848

>  <fragmenstein_outcome>  (788) 
too moved

>  <fragmenstein_mode>  (788) 
expansion

>  <fragmenstein_error>  (788) 


$$$$
C4343-P141
     RDKit          3D

 57 61  0  0  0  0  0  0  0  0999 V2000
   -0.2472    1.7888   27.8720 C   0  0  0  0  0  0  0  0  0  0  0  0
   -0.5214    0.4761   28.3954 N   0  0  0  0  0  0  0  0  0  0  0  0
   -1.4008   -0.4105   27.8647 C   0  0  0  0  0  0  0  0  0  0  0  0
   -1.5186   -1.4296   28.7729 C   0  0  0  0  0  0  0  0  0  0  0  0
   -0.6784   -1.0593   29.8353 C   0  0  0  0  0  0  0  0  0  0  0  0
   -0.6054   -1.9024   31.3620 S   0  0  0  0  0  0  0  0  0  0  0  0
   -0.8489   -0.8779   32.3558 O   0  0  0  0  0  0  0  0  0  0  0  0
   -1.4818   -3.0487   31.2281 O   0  0  0  0  0  0  0  0  0  0  0  0
    0.9901   -2.4240   31.5619 N   0  0  0  0  0  0  0  0  0  0  0  0
    1.4031   -3.5814   30.7585 C   0  0  0  0  0  0  0  0  0  0  0  0
    0.9275   -4.8439   31.4073 C   0  0  0  0  0  0  0  0  0  0  0  0
    1.0583   -4.9231   32.8573 C   0  0  0  0  0  0  0  0  0  0  0  0
    0.3519   -5.8413   33.5338 C   0  0  0  0  0  0  0  0  0  0  0  0
    0.4452   -5.6356   34.9412 N   0  0  0  0  0  0  0  0  0  0  0  0
   -0.5442   -4.7145   35.5585 C   0  0  0  0  0  0  0  0  0  0  0  0
   -0.2736   -4.4694   37.0418 C   0  0  0  0  0  0  0  0  0  0  0  0
    1.1882   -4.6639   37.4316 C   0  0  0  0  0  0  0  0  0  0  0  0
    1.7231   -6.0948   37.2197 C   0  0  0  0  0  0  0  0  0  0  0  0
    1.7479   -6.9813   38.4442 C   0  0  0  0  0  0  0  0  0  0  0  0
    0.6895   -7.0336   39.3635 C   0  0  0  0  0  0  0  0  0  0  0  0
    0.7454   -7.8860   40.4664 C   0  0  0  0  0  0  0  0  0  0  0  0
    1.8602   -8.6932   40.6693 C   0  0  0  0  0  0  0  0  0  0  0  0
    2.9225   -8.6488   39.7721 C   0  0  0  0  0  0  0  0  0  0  0  0
    2.8669   -7.8017   38.6661 C   0  0  0  0  0  0  0  0  0  0  0  0
    0.8691   -6.9751   35.8834 S   0  0  0  0  0  0  0  0  0  0  0  0
   -0.3807   -7.5479   36.3333 O   0  0  0  0  0  0  0  0  0  0  0  0
    1.8286   -7.7543   35.1194 O   0  0  0  0  0  0  0  0  0  0  0  0
   -0.3993   -6.7806   32.8235 N   0  0  0  0  0  0  0  0  0  0  0  0
   -1.2549   -7.7750   33.1921 C   0  0  0  0  0  0  0  0  0  0  0  0
   -1.7165   -8.3995   32.1286 N   0  0  0  0  0  0  0  0  0  0  0  0
   -1.1925   -7.7991   31.0159 N   0  0  0  0  0  0  0  0  0  0  0  0
   -0.4243   -6.8180   31.4321 C   0  0  0  0  0  0  0  0  0  0  0  0
    0.2516   -5.7910   30.7271 C   0  0  0  0  0  0  0  0  0  0  0  0
    0.0580    0.0345   29.5406 N   0  0  0  0  0  0  0  0  0  0  0  0
    0.8032    1.8246   27.5731 H   0  0  0  0  0  0  0  0  0  0  0  0
   -0.4462    2.5234   28.6560 H   0  0  0  0  0  0  0  0  0  0  0  0
   -0.8881    1.9854   27.0088 H   0  0  0  0  0  0  0  0  0  0  0  0
   -1.9011   -0.2428   26.9195 H   0  0  0  0  0  0  0  0  0  0  0  0
   -2.1766   -2.2835   28.6988 H   0  0  0  0  0  0  0  0  0  0  0  0
    1.5937   -1.6072   31.4326 H   0  0  0  0  0  0  0  0  0  0  0  0
    2.4993   -3.5906   30.7202 H   0  0  0  0  0  0  0  0  0  0  0  0
    1.0623   -3.4768   29.7225 H   0  0  0  0  0  0  0  0  0  0  0  0
    1.6502   -4.1673   33.3667 H   0  0  0  0  0  0  0  0  0  0  0  0
   -0.5260   -3.7556   35.0277 H   0  0  0  0  0  0  0  0  0  0  0  0
   -1.5371   -5.1474   35.4611 H   0  0  0  0  0  0  0  0  0  0  0  0
   -0.5923   -3.4515   37.2968 H   0  0  0  0  0  0  0  0  0  0  0  0
   -0.9126   -5.1310   37.6355 H   0  0  0  0  0  0  0  0  0  0  0  0
    1.3460   -4.3412   38.4678 H   0  0  0  0  0  0  0  0  0  0  0  0
    1.7870   -3.9784   36.8158 H   0  0  0  0  0  0  0  0  0  0  0  0
    2.7565   -5.9800   36.8635 H   0  0  0  0  0  0  0  0  0  0  0  0
   -0.2079   -6.4371   39.2328 H   0  0  0  0  0  0  0  0  0  0  0  0
   -0.0923   -7.9409   41.1567 H   0  0  0  0  0  0  0  0  0  0  0  0
    1.8866   -9.3805   41.5110 H   0  0  0  0  0  0  0  0  0  0  0  0
    3.7828   -9.2949   39.9242 H   0  0  0  0  0  0  0  0  0  0  0  0
    3.7043   -7.8037   37.9713 H   0  0  0  0  0  0  0  0  0  0  0  0
   -1.5089   -8.0076   34.2143 H   0  0  0  0  0  0  0  0  0  0  0  0
    0.0857   -5.7120   29.6615 H   0  0  0  0  0  0  0  0  0  0  0  0
  1  2  1  0
  2  3  1  0
  3  4  2  0
  4  5  1  0
  5  6  1  0
  6  7  2  0
  6  8  2  0
  6  9  1  0
  9 10  1  0
 10 11  1  0
 11 12  1  0
 12 13  2  0
 13 14  1  0
 14 15  1  0
 15 16  1  0
 16 17  1  0
 17 18  1  0
 18 19  1  0
 19 20  2  0
 20 21  1  0
 21 22  2  0
 22 23  1  0
 23 24  2  0
 18 25  1  0
 25 26  2  0
 25 27  2  0
 13 28  1  0
 28 29  1  0
 29 30  2  0
 30 31  1  0
 31 32  2  0
 32 33  1  0
  5 34  2  0
 34  2  1  0
 33 11  2  0
 25 14  1  0
 32 28  1  0
 24 19  1  0
  1 35  1  0
  1 36  1  0
  1 37  1  0
  3 38  1  0
  4 39  1  0
  9 40  1  0
 10 41  1  0
 10 42  1  0
 12 43  1  0
 15 44  1  0
 15 45  1  0
 16 46  1  0
 16 47  1  0
 17 48  1  0
 17 49  1  0
 18 50  1  0
 20 51  1  0
 21 52  1  0
 22 53  1  0
 23 54  1  0
 24 55  1  0
 29 56  1  0
 33 57  1  0
M  END
>  <Energy>  (789) 
75.661547027664966

>  <compound_id>  (789) 
4343

>  <target_id>  (789) 
1

>  <reference_id>  (789) 
141

>  <inspiration_ids>  (789) 
[153, 141]

>  <energy_score>  (789) 
-71.61733714582027

>  <distance_score>  (789) 
1.4306230822972035

>  <path>  (789) 
/opt/xchem-fragalysis-2/maxwin/BulkDock/SCRATCH/505735/C4343-P141/C4343-P141.minimised.mol

>  <scratch_subdir>  (789) 
/opt/xchem-fragalysis-2/maxwin/BulkDock/SCRATCH/505735/C4343-P141

>  <fragmenstein_runtime>  (789) 
22.412955284118652

>  <fragmenstein_outcome>  (789) 
too moved

>  <fragmenstein_mode>  (789) 
expansion

>  <fragmenstein_error>  (789) 


$$$$
C4343-P153
     RDKit          3D

 57 61  0  0  0  0  0  0  0  0999 V2000
   -1.9146    1.5727   26.4849 C   0  0  0  0  0  0  0  0  0  0  0  0
   -1.1423    1.0516   27.5927 N   0  0  0  0  0  0  0  0  0  0  0  0
   -0.1640    1.7285   28.2630 C   0  0  0  0  0  0  0  0  0  0  0  0
    0.2836    0.8813   29.2472 C   0  0  0  0  0  0  0  0  0  0  0  0
   -0.4774   -0.3050   29.0931 C   0  0  0  0  0  0  0  0  0  0  0  0
   -0.2528   -1.7045   30.1411 S   0  0  0  0  0  0  0  0  0  0  0  0
   -1.4412   -2.5216   30.0725 O   0  0  0  0  0  0  0  0  0  0  0  0
    0.1614   -1.1217   31.4044 O   0  0  0  0  0  0  0  0  0  0  0  0
    1.0738   -2.6034   29.5765 N   0  0  0  0  0  0  0  0  0  0  0  0
    1.8586   -3.3061   30.6022 C   0  0  0  0  0  0  0  0  0  0  0  0
    1.1007   -4.4682   31.2294 C   0  0  0  0  0  0  0  0  0  0  0  0
    1.0805   -4.5402   32.6922 C   0  0  0  0  0  0  0  0  0  0  0  0
    0.4024   -5.5206   33.3267 C   0  0  0  0  0  0  0  0  0  0  0  0
    0.4492   -5.3722   34.7522 N   0  0  0  0  0  0  0  0  0  0  0  0
   -0.4336   -4.3324   35.3553 C   0  0  0  0  0  0  0  0  0  0  0  0
   -0.3283   -4.2758   36.8791 C   0  0  0  0  0  0  0  0  0  0  0  0
    1.0897   -4.5514   37.3719 C   0  0  0  0  0  0  0  0  0  0  0  0
    1.6047   -5.9736   37.0659 C   0  0  0  0  0  0  0  0  0  0  0  0
    1.6417   -6.9029   38.2614 C   0  0  0  0  0  0  0  0  0  0  0  0
    0.5542   -7.0405   39.1366 C   0  0  0  0  0  0  0  0  0  0  0  0
    0.6416   -7.8663   40.2587 C   0  0  0  0  0  0  0  0  0  0  0  0
    1.8150   -8.5671   40.5226 C   0  0  0  0  0  0  0  0  0  0  0  0
    2.8994   -8.4533   39.6578 C   0  0  0  0  0  0  0  0  0  0  0  0
    2.8132   -7.6300   38.5339 C   0  0  0  0  0  0  0  0  0  0  0  0
    0.7202   -6.7640   35.6969 S   0  0  0  0  0  0  0  0  0  0  0  0
   -0.5869   -7.2206   36.1141 O   0  0  0  0  0  0  0  0  0  0  0  0
    1.6374   -7.6159   34.9578 O   0  0  0  0  0  0  0  0  0  0  0  0
   -0.2708   -6.4891   32.5685 N   0  0  0  0  0  0  0  0  0  0  0  0
   -1.0674   -7.5594   32.8787 C   0  0  0  0  0  0  0  0  0  0  0  0
   -1.4803   -8.1592   31.7811 N   0  0  0  0  0  0  0  0  0  0  0  0
   -0.9659   -7.4771   30.7080 N   0  0  0  0  0  0  0  0  0  0  0  0
   -0.2593   -6.4692   31.1755 C   0  0  0  0  0  0  0  0  0  0  0  0
    0.4433   -5.4144   30.5205 C   0  0  0  0  0  0  0  0  0  0  0  0
   -1.3248   -0.2054   28.0531 N   0  0  0  0  0  0  0  0  0  0  0  0
   -2.3839    0.7435   25.9532 H   0  0  0  0  0  0  0  0  0  0  0  0
   -1.2369    2.1060   25.8136 H   0  0  0  0  0  0  0  0  0  0  0  0
   -2.6630    2.2612   26.8707 H   0  0  0  0  0  0  0  0  0  0  0  0
    0.1008    2.7442   28.0003 H   0  0  0  0  0  0  0  0  0  0  0  0
    1.0405    1.0906   29.9899 H   0  0  0  0  0  0  0  0  0  0  0  0
    1.6155   -2.0685   28.8994 H   0  0  0  0  0  0  0  0  0  0  0  0
    2.2294   -2.5912   31.3448 H   0  0  0  0  0  0  0  0  0  0  0  0
    2.7556   -3.7108   30.1161 H   0  0  0  0  0  0  0  0  0  0  0  0
    1.6040   -3.7640   33.2438 H   0  0  0  0  0  0  0  0  0  0  0  0
   -1.4675   -4.5126   35.0638 H   0  0  0  0  0  0  0  0  0  0  0  0
   -0.1405   -3.3532   34.9578 H   0  0  0  0  0  0  0  0  0  0  0  0
   -0.6495   -3.2833   37.2173 H   0  0  0  0  0  0  0  0  0  0  0  0
   -1.0313   -4.9829   37.3321 H   0  0  0  0  0  0  0  0  0  0  0  0
    1.1620   -4.3288   38.4434 H   0  0  0  0  0  0  0  0  0  0  0  0
    1.7586   -3.8311   36.8806 H   0  0  0  0  0  0  0  0  0  0  0  0
    2.6330   -5.8561   36.6958 H   0  0  0  0  0  0  0  0  0  0  0  0
   -0.3830   -6.5195   38.9552 H   0  0  0  0  0  0  0  0  0  0  0  0
   -0.2147   -7.9721   40.9199 H   0  0  0  0  0  0  0  0  0  0  0  0
    1.8754   -9.2130   41.3937 H   0  0  0  0  0  0  0  0  0  0  0  0
    3.8119   -9.0085   39.8562 H   0  0  0  0  0  0  0  0  0  0  0  0
    3.6761   -7.5603   37.8747 H   0  0  0  0  0  0  0  0  0  0  0  0
   -1.3218   -7.8685   33.8817 H   0  0  0  0  0  0  0  0  0  0  0  0
    0.4011   -5.3645   29.4398 H   0  0  0  0  0  0  0  0  0  0  0  0
  1  2  1  0
  2  3  1  0
  3  4  2  0
  4  5  1  0
  5  6  1  0
  6  7  2  0
  6  8  2  0
  6  9  1  0
  9 10  1  0
 10 11  1  0
 11 12  1  0
 12 13  2  0
 13 14  1  0
 14 15  1  0
 15 16  1  0
 16 17  1  0
 17 18  1  0
 18 19  1  0
 19 20  2  0
 20 21  1  0
 21 22  2  0
 22 23  1  0
 23 24  2  0
 18 25  1  0
 25 26  2  0
 25 27  2  0
 13 28  1  0
 28 29  1  0
 29 30  2  0
 30 31  1  0
 31 32  2  0
 32 33  1  0
  5 34  2  0
 34  2  1  0
 33 11  2  0
 25 14  1  0
 32 28  1  0
 24 19  1  0
  1 35  1  0
  1 36  1  0
  1 37  1  0
  3 38  1  0
  4 39  1  0
  9 40  1  0
 10 41  1  0
 10 42  1  0
 12 43  1  0
 15 44  1  0
 15 45  1  0
 16 46  1  0
 16 47  1  0
 17 48  1  0
 17 49  1  0
 18 50  1  0
 20 51  1  0
 21 52  1  0
 22 53  1  0
 23 54  1  0
 24 55  1  0
 29 56  1  0
 33 57  1  0
M  END
>  <Energy>  (790) 
83.65693239394102

>  <compound_id>  (790) 
4343

>  <target_id>  (790) 
1

>  <reference_id>  (790) 
153

>  <inspiration_ids>  (790) 
[153, 142]

>  <energy_score>  (790) 
-63.621951779545554

>  <distance_score>  (790) 
0.8889421937607169

>  <path>  (790) 
/opt/xchem-fragalysis-2/maxwin/BulkDock/SCRATCH/505735/C4343-P153/C4343-P153.minimised.mol

>  <scratch_subdir>  (790) 
/opt/xchem-fragalysis-2/maxwin/BulkDock/SCRATCH/505735/C4343-P153

>  <fragmenstein_runtime>  (790) 
10.832196712493896

>  <fragmenstein_outcome>  (790) 
acceptable

>  <fragmenstein_mode>  (790) 
expansion

>  <fragmenstein_error>  (790) 


$$$$
C4343-P142
     RDKit          3D

 57 61  0  0  0  0  0  0  0  0999 V2000
   -2.3700    1.5449   26.7470 C   0  0  0  0  0  0  0  0  0  0  0  0
   -1.4797    1.0443   27.7720 N   0  0  0  0  0  0  0  0  0  0  0  0
   -0.4912    1.7574   28.3879 C   0  0  0  0  0  0  0  0  0  0  0  0
    0.0747    0.9091   29.3090 C   0  0  0  0  0  0  0  0  0  0  0  0
   -0.6452   -0.3070   29.1882 C   0  0  0  0  0  0  0  0  0  0  0  0
   -0.3103   -1.7051   30.2073 S   0  0  0  0  0  0  0  0  0  0  0  0
   -1.4666   -2.5704   30.1808 O   0  0  0  0  0  0  0  0  0  0  0  0
    0.1326   -1.1151   31.4574 O   0  0  0  0  0  0  0  0  0  0  0  0
    1.0291   -2.5456   29.5853 N   0  0  0  0  0  0  0  0  0  0  0  0
    1.8516   -3.2617   30.5739 C   0  0  0  0  0  0  0  0  0  0  0  0
    1.1157   -4.4277   31.2183 C   0  0  0  0  0  0  0  0  0  0  0  0
    1.1127   -4.4918   32.6810 C   0  0  0  0  0  0  0  0  0  0  0  0
    0.4369   -5.4644   33.3306 C   0  0  0  0  0  0  0  0  0  0  0  0
    0.5031   -5.3060   34.7568 N   0  0  0  0  0  0  0  0  0  0  0  0
   -0.3042   -4.2045   35.3556 C   0  0  0  0  0  0  0  0  0  0  0  0
   -0.2599   -4.1891   36.8820 C   0  0  0  0  0  0  0  0  0  0  0  0
    1.1349   -4.5065   37.4118 C   0  0  0  0  0  0  0  0  0  0  0  0
    1.6292   -5.9306   37.0860 C   0  0  0  0  0  0  0  0  0  0  0  0
    1.6554   -6.8737   38.2714 C   0  0  0  0  0  0  0  0  0  0  0  0
    0.5743   -6.9897   39.1578 C   0  0  0  0  0  0  0  0  0  0  0  0
    0.6483   -7.8341   40.2669 C   0  0  0  0  0  0  0  0  0  0  0  0
    1.8027   -8.5741   40.5071 C   0  0  0  0  0  0  0  0  0  0  0  0
    2.8810   -8.4796   39.6322 C   0  0  0  0  0  0  0  0  0  0  0  0
    2.8074   -7.6387   38.5204 C   0  0  0  0  0  0  0  0  0  0  0  0
    0.7320   -6.6967   35.7114 S   0  0  0  0  0  0  0  0  0  0  0  0
   -0.5877   -7.1197   36.1264 O   0  0  0  0  0  0  0  0  0  0  0  0
    1.6368   -7.5693   34.9829 O   0  0  0  0  0  0  0  0  0  0  0  0
   -0.2444   -6.4379   32.5830 N   0  0  0  0  0  0  0  0  0  0  0  0
   -1.0432   -7.5033   32.9030 C   0  0  0  0  0  0  0  0  0  0  0  0
   -1.4615   -8.1120   31.8120 N   0  0  0  0  0  0  0  0  0  0  0  0
   -0.9466   -7.4433   30.7321 N   0  0  0  0  0  0  0  0  0  0  0  0
   -0.2401   -6.4305   31.1892 C   0  0  0  0  0  0  0  0  0  0  0  0
    0.4553   -5.3800   30.5217 C   0  0  0  0  0  0  0  0  0  0  0  0
   -1.5784   -0.2235   28.2232 N   0  0  0  0  0  0  0  0  0  0  0  0
   -2.7492    0.7034   26.1649 H   0  0  0  0  0  0  0  0  0  0  0  0
   -1.8088    2.2195   26.0955 H   0  0  0  0  0  0  0  0  0  0  0  0
   -3.1865    2.0823   27.2307 H   0  0  0  0  0  0  0  0  0  0  0  0
   -0.2983    2.7920   28.1378 H   0  0  0  0  0  0  0  0  0  0  0  0
    0.8726    1.1403   30.0007 H   0  0  0  0  0  0  0  0  0  0  0  0
    1.5468   -1.9708   28.9227 H   0  0  0  0  0  0  0  0  0  0  0  0
    2.2494   -2.5531   31.3088 H   0  0  0  0  0  0  0  0  0  0  0  0
    2.7290   -3.6618   30.0500 H   0  0  0  0  0  0  0  0  0  0  0  0
    1.6489   -3.7155   33.2195 H   0  0  0  0  0  0  0  0  0  0  0  0
   -1.3361   -4.2682   35.0170 H   0  0  0  0  0  0  0  0  0  0  0  0
    0.0992   -3.2486   34.9996 H   0  0  0  0  0  0  0  0  0  0  0  0
   -0.5676   -3.1963   37.2320 H   0  0  0  0  0  0  0  0  0  0  0  0
   -0.9941   -4.8891   37.2946 H   0  0  0  0  0  0  0  0  0  0  0  0
    1.1779   -4.3086   38.4896 H   0  0  0  0  0  0  0  0  0  0  0  0
    1.8347   -3.7896   36.9601 H   0  0  0  0  0  0  0  0  0  0  0  0
    2.6586   -5.8236   36.7158 H   0  0  0  0  0  0  0  0  0  0  0  0
   -0.3464   -6.4351   38.9927 H   0  0  0  0  0  0  0  0  0  0  0  0
   -0.2028   -7.9243   40.9367 H   0  0  0  0  0  0  0  0  0  0  0  0
    1.8530   -9.2360   41.3667 H   0  0  0  0  0  0  0  0  0  0  0  0
    3.7777   -9.0664   39.8111 H   0  0  0  0  0  0  0  0  0  0  0  0
    3.6630   -7.5881   37.8502 H   0  0  0  0  0  0  0  0  0  0  0  0
   -1.2937   -7.8034   33.9090 H   0  0  0  0  0  0  0  0  0  0  0  0
    0.4001   -5.3327   29.4421 H   0  0  0  0  0  0  0  0  0  0  0  0
  1  2  1  0
  2  3  1  0
  3  4  2  0
  4  5  1  0
  5  6  1  0
  6  7  2  0
  6  8  2  0
  6  9  1  0
  9 10  1  0
 10 11  1  0
 11 12  1  0
 12 13  2  0
 13 14  1  0
 14 15  1  0
 15 16  1  0
 16 17  1  0
 17 18  1  0
 18 19  1  0
 19 20  2  0
 20 21  1  0
 21 22  2  0
 22 23  1  0
 23 24  2  0
 18 25  1  0
 25 26  2  0
 25 27  2  0
 13 28  1  0
 28 29  1  0
 29 30  2  0
 30 31  1  0
 31 32  2  0
 32 33  1  0
  5 34  2  0
 34  2  1  0
 33 11  2  0
 25 14  1  0
 32 28  1  0
 24 19  1  0
  1 35  1  0
  1 36  1  0
  1 37  1  0
  3 38  1  0
  4 39  1  0
  9 40  1  0
 10 41  1  0
 10 42  1  0
 12 43  1  0
 15 44  1  0
 15 45  1  0
 16 46  1  0
 16 47  1  0
 17 48  1  0
 17 49  1  0
 18 50  1  0
 20 51  1  0
 21 52  1  0
 22 53  1  0
 23 54  1  0
 24 55  1  0
 29 56  1  0
 33 57  1  0
M  END
>  <Energy>  (791) 
83.659587390828563

>  <compound_id>  (791) 
4343

>  <target_id>  (791) 
1

>  <reference_id>  (791) 
142

>  <inspiration_ids>  (791) 
[153, 142]

>  <energy_score>  (791) 
-63.61929678265673

>  <distance_score>  (791) 
0.8526366841170363

>  <path>  (791) 
/opt/xchem-fragalysis-2/maxwin/BulkDock/SCRATCH/505735/C4343-P142/C4343-P142.minimised.mol

>  <scratch_subdir>  (791) 
/opt/xchem-fragalysis-2/maxwin/BulkDock/SCRATCH/505735/C4343-P142

>  <fragmenstein_runtime>  (791) 
21.97650146484375

>  <fragmenstein_outcome>  (791) 
acceptable

>  <fragmenstein_mode>  (791) 
expansion

>  <fragmenstein_error>  (791) 


$$$$
C4361-P153
     RDKit          3D

 58 62  0  0  0  0  0  0  0  0999 V2000
   -0.9059    2.6822   26.0894 N   0  0  0  0  0  0  0  0  0  0  0  0
   -0.6955    1.7671   27.0833 C   0  0  0  0  0  0  0  0  0  0  0  0
   -1.3554    0.5559   27.0606 C   0  0  0  0  0  0  0  0  0  0  0  0
   -1.2788   -0.2514   28.1777 C   0  0  0  0  0  0  0  0  0  0  0  0
   -0.5709    0.2116   29.2772 C   0  0  0  0  0  0  0  0  0  0  0  0
   -0.6899   -0.5664   30.8513 S   0  0  0  0  0  0  0  0  0  0  0  0
    0.5273   -0.2972   31.5856 O   0  0  0  0  0  0  0  0  0  0  0  0
   -1.9838   -0.1930   31.3844 O   0  0  0  0  0  0  0  0  0  0  0  0
   -0.7498   -2.2172   30.5804 N   0  0  0  0  0  0  0  0  0  0  0  0
    0.4627   -2.9777   30.2881 C   0  0  0  0  0  0  0  0  0  0  0  0
    0.3332   -4.3060   31.0406 C   0  0  0  0  0  0  0  0  0  0  0  0
    0.5260   -4.3391   32.4968 C   0  0  0  0  0  0  0  0  0  0  0  0
    0.1478   -5.4184   33.2261 C   0  0  0  0  0  0  0  0  0  0  0  0
    0.3489   -5.2404   34.6491 N   0  0  0  0  0  0  0  0  0  0  0  0
   -0.4097   -4.1284   35.3069 C   0  0  0  0  0  0  0  0  0  0  0  0
   -0.3153   -4.1344   36.8304 C   0  0  0  0  0  0  0  0  0  0  0  0
    1.0994   -4.4396   37.3069 C   0  0  0  0  0  0  0  0  0  0  0  0
    1.5887   -5.8563   36.9572 C   0  0  0  0  0  0  0  0  0  0  0  0
    1.6480   -6.8024   38.1418 C   0  0  0  0  0  0  0  0  0  0  0  0
    0.5715   -6.9593   39.0289 C   0  0  0  0  0  0  0  0  0  0  0  0
    0.6763   -7.8005   40.1383 C   0  0  0  0  0  0  0  0  0  0  0  0
    1.8568   -8.4976   40.3787 C   0  0  0  0  0  0  0  0  0  0  0  0
    2.9308   -8.3634   39.5036 C   0  0  0  0  0  0  0  0  0  0  0  0
    2.8273   -7.5245   38.3920 C   0  0  0  0  0  0  0  0  0  0  0  0
    0.6473   -6.6218   35.6105 S   0  0  0  0  0  0  0  0  0  0  0  0
   -0.6494   -7.0655   36.0754 O   0  0  0  0  0  0  0  0  0  0  0  0
    1.5290   -7.4948   34.8527 O   0  0  0  0  0  0  0  0  0  0  0  0
   -0.3991   -6.5247   32.5448 N   0  0  0  0  0  0  0  0  0  0  0  0
   -1.0399   -7.6743   32.9286 C   0  0  0  0  0  0  0  0  0  0  0  0
   -1.4246   -8.3664   31.8755 N   0  0  0  0  0  0  0  0  0  0  0  0
   -1.0482   -7.6796   30.7561 N   0  0  0  0  0  0  0  0  0  0  0  0
   -0.4609   -6.5732   31.1528 C   0  0  0  0  0  0  0  0  0  0  0  0
   -0.0487   -5.4341   30.4125 C   0  0  0  0  0  0  0  0  0  0  0  0
    0.1327    1.3949   29.1825 C   0  0  0  0  0  0  0  0  0  0  0  0
    0.0883    2.1774   28.0929 N   0  0  0  0  0  0  0  0  0  0  0  0
   -0.3672    3.5215   26.2815 H   0  0  0  0  0  0  0  0  0  0  0  0
   -0.8292    2.3631   25.1406 H   0  0  0  0  0  0  0  0  0  0  0  0
   -1.9726    0.2652   26.2176 H   0  0  0  0  0  0  0  0  0  0  0  0
   -1.8184   -1.1915   28.1855 H   0  0  0  0  0  0  0  0  0  0  0  0
   -1.6214   -2.5465   30.1667 H   0  0  0  0  0  0  0  0  0  0  0  0
    1.3748   -2.4660   30.6086 H   0  0  0  0  0  0  0  0  0  0  0  0
    0.5308   -3.1402   29.2069 H   0  0  0  0  0  0  0  0  0  0  0  0
    0.9629   -3.4515   32.9460 H   0  0  0  0  0  0  0  0  0  0  0  0
   -1.4568   -4.1642   35.0076 H   0  0  0  0  0  0  0  0  0  0  0  0
    0.0019   -3.1742   34.9576 H   0  0  0  0  0  0  0  0  0  0  0  0
   -0.6205   -3.1489   37.2030 H   0  0  0  0  0  0  0  0  0  0  0  0
   -1.0292   -4.8456   37.2584 H   0  0  0  0  0  0  0  0  0  0  0  0
    1.1798   -4.2468   38.3836 H   0  0  0  0  0  0  0  0  0  0  0  0
    1.7767   -3.7154   36.8332 H   0  0  0  0  0  0  0  0  0  0  0  0
    2.6054   -5.7477   36.5544 H   0  0  0  0  0  0  0  0  0  0  0  0
   -0.3711   -6.4415   38.8656 H   0  0  0  0  0  0  0  0  0  0  0  0
   -0.1717   -7.9213   40.8073 H   0  0  0  0  0  0  0  0  0  0  0  0
    1.9311   -9.1560   41.2392 H   0  0  0  0  0  0  0  0  0  0  0  0
    3.8493   -8.9150   39.6842 H   0  0  0  0  0  0  0  0  0  0  0  0
    3.6829   -7.4390   37.7254 H   0  0  0  0  0  0  0  0  0  0  0  0
   -1.2284   -7.9712   33.9490 H   0  0  0  0  0  0  0  0  0  0  0  0
   -0.2298   -5.4316   29.3482 H   0  0  0  0  0  0  0  0  0  0  0  0
    0.7182    1.7899   30.0078 H   0  0  0  0  0  0  0  0  0  0  0  0
  1  2  1  0
  2  3  2  0
  3  4  1  0
  4  5  2  0
  5  6  1  0
  6  7  2  0
  6  8  2  0
  6  9  1  0
  9 10  1  0
 10 11  1  0
 11 12  1  0
 12 13  2  0
 13 14  1  0
 14 15  1  0
 15 16  1  0
 16 17  1  0
 17 18  1  0
 18 19  1  0
 19 20  2  0
 20 21  1  0
 21 22  2  0
 22 23  1  0
 23 24  2  0
 18 25  1  0
 25 26  2  0
 25 27  2  0
 13 28  1  0
 28 29  1  0
 29 30  2  0
 30 31  1  0
 31 32  2  0
 32 33  1  0
  5 34  1  0
 34 35  2  0
 35  2  1  0
 33 11  2  0
 25 14  1  0
 32 28  1  0
 24 19  1  0
  1 36  1  0
  1 37  1  0
  3 38  1  0
  4 39  1  0
  9 40  1  0
 10 41  1  0
 10 42  1  0
 12 43  1  0
 15 44  1  0
 15 45  1  0
 16 46  1  0
 16 47  1  0
 17 48  1  0
 17 49  1  0
 18 50  1  0
 20 51  1  0
 21 52  1  0
 22 53  1  0
 23 54  1  0
 24 55  1  0
 29 56  1  0
 33 57  1  0
 34 58  1  0
M  END
>  <Energy>  (792) 
-46.817318248070443

>  <compound_id>  (792) 
4361

>  <target_id>  (792) 
1

>  <reference_id>  (792) 
153

>  <inspiration_ids>  (792) 
[153, 147]

>  <energy_score>  (792) 
-64.20900017929046

>  <distance_score>  (792) 
1.8796972531916587

>  <path>  (792) 
/opt/xchem-fragalysis-2/maxwin/BulkDock/SCRATCH/505735/C4361-P153/C4361-P153.minimised.mol

>  <scratch_subdir>  (792) 
/opt/xchem-fragalysis-2/maxwin/BulkDock/SCRATCH/505735/C4361-P153

>  <fragmenstein_runtime>  (792) 
26.179203748703003

>  <fragmenstein_outcome>  (792) 
too moved

>  <fragmenstein_mode>  (792) 
expansion

>  <fragmenstein_error>  (792) 


$$$$
C4361-P147
     RDKit          3D

 58 62  0  0  0  0  0  0  0  0999 V2000
   -0.9371    2.8986   26.3226 N   0  0  0  0  0  0  0  0  0  0  0  0
   -0.8548    1.9276   27.2831 C   0  0  0  0  0  0  0  0  0  0  0  0
   -1.6308    0.7898   27.1922 C   0  0  0  0  0  0  0  0  0  0  0  0
   -1.6112   -0.0985   28.2482 C   0  0  0  0  0  0  0  0  0  0  0  0
   -0.8525    0.2220   29.3667 C   0  0  0  0  0  0  0  0  0  0  0  0
   -0.9927   -0.7057   30.8579 S   0  0  0  0  0  0  0  0  0  0  0  0
    0.1568   -0.4236   31.6904 O   0  0  0  0  0  0  0  0  0  0  0  0
   -2.3374   -0.4920   31.3489 O   0  0  0  0  0  0  0  0  0  0  0  0
   -0.9060   -2.3197   30.4194 N   0  0  0  0  0  0  0  0  0  0  0  0
    0.3827   -2.9817   30.2228 C   0  0  0  0  0  0  0  0  0  0  0  0
    0.2939   -4.3078   30.9838 C   0  0  0  0  0  0  0  0  0  0  0  0
    0.5005   -4.3208   32.4397 C   0  0  0  0  0  0  0  0  0  0  0  0
    0.1374   -5.3938   33.1853 C   0  0  0  0  0  0  0  0  0  0  0  0
    0.3445   -5.2056   34.6087 N   0  0  0  0  0  0  0  0  0  0  0  0
   -0.3566   -4.0505   35.2545 C   0  0  0  0  0  0  0  0  0  0  0  0
   -0.3182   -4.0775   36.7792 C   0  0  0  0  0  0  0  0  0  0  0  0
    1.0810   -4.3922   37.2932 C   0  0  0  0  0  0  0  0  0  0  0  0
    1.5759   -5.8052   36.9417 C   0  0  0  0  0  0  0  0  0  0  0  0
    1.6157   -6.7648   38.1158 C   0  0  0  0  0  0  0  0  0  0  0  0
    0.5509   -6.8806   39.0240 C   0  0  0  0  0  0  0  0  0  0  0  0
    0.6227   -7.7687   40.0984 C   0  0  0  0  0  0  0  0  0  0  0  0
    1.7582   -8.5516   40.2827 C   0  0  0  0  0  0  0  0  0  0  0  0
    2.8249   -8.4470   39.3951 C   0  0  0  0  0  0  0  0  0  0  0  0
    2.7547   -7.5622   38.3179 C   0  0  0  0  0  0  0  0  0  0  0  0
    0.6426   -6.5725   35.5856 S   0  0  0  0  0  0  0  0  0  0  0  0
   -0.6509   -7.0332   36.0490 O   0  0  0  0  0  0  0  0  0  0  0  0
    1.5261   -7.4558   34.8431 O   0  0  0  0  0  0  0  0  0  0  0  0
   -0.4044   -6.5094   32.5165 N   0  0  0  0  0  0  0  0  0  0  0  0
   -1.0414   -7.6525   32.9193 C   0  0  0  0  0  0  0  0  0  0  0  0
   -1.4211   -8.3692   31.8820 N   0  0  0  0  0  0  0  0  0  0  0  0
   -1.0522   -7.6996   30.7500 N   0  0  0  0  0  0  0  0  0  0  0  0
   -0.4729   -6.5805   31.1260 C   0  0  0  0  0  0  0  0  0  0  0  0
   -0.0804   -5.4462   30.3681 C   0  0  0  0  0  0  0  0  0  0  0  0
   -0.0768    1.3638   29.3585 C   0  0  0  0  0  0  0  0  0  0  0  0
   -0.0525    2.2138   28.3203 N   0  0  0  0  0  0  0  0  0  0  0  0
   -0.3116    3.6600   26.5708 H   0  0  0  0  0  0  0  0  0  0  0  0
   -0.8423    2.6039   25.3671 H   0  0  0  0  0  0  0  0  0  0  0  0
   -2.2689    0.6131   26.3351 H   0  0  0  0  0  0  0  0  0  0  0  0
   -2.2293   -0.9891   28.2075 H   0  0  0  0  0  0  0  0  0  0  0  0
   -1.6837   -2.6469   29.8460 H   0  0  0  0  0  0  0  0  0  0  0  0
    1.2303   -2.3976   30.5917 H   0  0  0  0  0  0  0  0  0  0  0  0
    0.5378   -3.1499   29.1514 H   0  0  0  0  0  0  0  0  0  0  0  0
    0.9326   -3.4230   32.8725 H   0  0  0  0  0  0  0  0  0  0  0  0
   -1.3918   -4.0003   34.9182 H   0  0  0  0  0  0  0  0  0  0  0  0
    0.1375   -3.1258   34.9329 H   0  0  0  0  0  0  0  0  0  0  0  0
   -0.6284   -3.0942   37.1532 H   0  0  0  0  0  0  0  0  0  0  0  0
   -1.0486   -4.7905   37.1752 H   0  0  0  0  0  0  0  0  0  0  0  0
    1.1320   -4.2085   38.3732 H   0  0  0  0  0  0  0  0  0  0  0  0
    1.7744   -3.6656   36.8472 H   0  0  0  0  0  0  0  0  0  0  0  0
    2.5970   -5.6960   36.5510 H   0  0  0  0  0  0  0  0  0  0  0  0
   -0.3583   -6.2969   38.9019 H   0  0  0  0  0  0  0  0  0  0  0  0
   -0.2167   -7.8702   40.7813 H   0  0  0  0  0  0  0  0  0  0  0  0
    1.7964   -9.2685   41.0992 H   0  0  0  0  0  0  0  0  0  0  0  0
    3.7019   -9.0738   39.5322 H   0  0  0  0  0  0  0  0  0  0  0  0
    3.5994   -7.5117   37.6341 H   0  0  0  0  0  0  0  0  0  0  0  0
   -1.2309   -7.9230   33.9445 H   0  0  0  0  0  0  0  0  0  0  0  0
   -0.2776   -5.4587   29.3052 H   0  0  0  0  0  0  0  0  0  0  0  0
    0.5295    1.6616   30.2092 H   0  0  0  0  0  0  0  0  0  0  0  0
  1  2  1  0
  2  3  2  0
  3  4  1  0
  4  5  2  0
  5  6  1  0
  6  7  2  0
  6  8  2  0
  6  9  1  0
  9 10  1  0
 10 11  1  0
 11 12  1  0
 12 13  2  0
 13 14  1  0
 14 15  1  0
 15 16  1  0
 16 17  1  0
 17 18  1  0
 18 19  1  0
 19 20  2  0
 20 21  1  0
 21 22  2  0
 22 23  1  0
 23 24  2  0
 18 25  1  0
 25 26  2  0
 25 27  2  0
 13 28  1  0
 28 29  1  0
 29 30  2  0
 30 31  1  0
 31 32  2  0
 32 33  1  0
  5 34  1  0
 34 35  2  0
 35  2  1  0
 33 11  2  0
 25 14  1  0
 32 28  1  0
 24 19  1  0
  1 36  1  0
  1 37  1  0
  3 38  1  0
  4 39  1  0
  9 40  1  0
 10 41  1  0
 10 42  1  0
 12 43  1  0
 15 44  1  0
 15 45  1  0
 16 46  1  0
 16 47  1  0
 17 48  1  0
 17 49  1  0
 18 50  1  0
 20 51  1  0
 21 52  1  0
 22 53  1  0
 23 54  1  0
 24 55  1  0
 29 56  1  0
 33 57  1  0
 34 58  1  0
M  END
>  <Energy>  (793) 
-46.833614565476481

>  <compound_id>  (793) 
4361

>  <target_id>  (793) 
1

>  <reference_id>  (793) 
147

>  <inspiration_ids>  (793) 
[153, 147]

>  <energy_score>  (793) 
-64.22529649669818

>  <distance_score>  (793) 
1.8768627566459082

>  <path>  (793) 
/opt/xchem-fragalysis-2/maxwin/BulkDock/SCRATCH/505735/C4361-P147/C4361-P147.minimised.mol

>  <scratch_subdir>  (793) 
/opt/xchem-fragalysis-2/maxwin/BulkDock/SCRATCH/505735/C4361-P147

>  <fragmenstein_runtime>  (793) 
12.958271980285645

>  <fragmenstein_outcome>  (793) 
too moved

>  <fragmenstein_mode>  (793) 
expansion

>  <fragmenstein_error>  (793) 


$$$$
C4361-P153
     RDKit          2D

  0  0  0  0  0  0  0  0  0  0999 V2000
M  END
>  <compound_id>  (794) 
4361

>  <target_id>  (794) 
1

>  <reference_id>  (794) 
153

>  <inspiration_ids>  (794) 
[153, 148]

>  <energy_score>  (794) 
nan

>  <distance_score>  (794) 
nan

>  <path>  (794) 
/opt/xchem-fragalysis-2/maxwin/BulkDock/SCRATCH/505735/C4361-P153/C4361-P153.minimised.mol

>  <scratch_subdir>  (794) 
/opt/xchem-fragalysis-2/maxwin/BulkDock/SCRATCH/505735/C4361-P153

>  <fragmenstein_runtime>  (794) 
0.5922605991363525

>  <fragmenstein_outcome>  (794) 
too distant

>  <fragmenstein_mode>  (794) 
expansion

>  <fragmenstein_error>  (794) 
DistanceError: hit0+hit1

$$$$
C4363-P153
     RDKit          3D

 65 69  0  0  0  0  0  0  0  0999 V2000
    3.6593   -5.3864   34.1232 C   0  0  0  0  0  0  0  0  0  0  0  0
    2.2494   -5.8944   33.8856 C   0  0  0  0  0  0  0  0  0  0  0  0
    1.4561   -6.5346   35.3485 S   0  0  0  0  0  0  0  0  0  0  0  0
    0.3359   -7.3714   34.9923 O   0  0  0  0  0  0  0  0  0  0  0  0
    2.4940   -7.0576   36.1993 O   0  0  0  0  0  0  0  0  0  0  0  0
    0.8198   -5.0888   35.8934 N   0  0  0  0  0  0  0  0  0  0  0  0
    1.5478   -4.3541   36.9315 C   0  0  0  0  0  0  0  0  0  0  0  0
    1.2096   -2.8400   36.9609 C   0  0  0  0  0  0  0  0  0  0  0  0
    1.4495   -2.1954   35.6517 N   0  0  0  0  0  0  0  0  0  0  0  0
    0.9179   -0.8623   35.4811 C   0  0  0  0  0  0  0  0  0  0  0  0
    1.6155   -0.0055   36.4096 N   0  0  0  0  0  0  0  0  0  0  0  0
   -0.5632   -0.7508   35.5589 C   0  0  0  0  0  0  0  0  0  0  0  0
   -1.0986    0.4935   35.7937 O   0  0  0  0  0  0  0  0  0  0  0  0
   -2.4427    0.2807   35.8005 C   0  0  0  0  0  0  0  0  0  0  0  0
   -2.8135   -0.9581   35.5783 N   0  0  0  0  0  0  0  0  0  0  0  0
   -1.6185   -1.6338   35.4188 C   0  0  0  0  0  0  0  0  0  0  0  0
   -1.5043   -3.0699   35.1699 C   0  0  0  0  0  0  0  0  0  0  0  0
   -1.6897   -3.8406   36.0307 O   0  0  0  0  0  0  0  0  0  0  0  0
   -1.0732   -3.2927   33.6972 N   0  0  0  0  0  0  0  0  0  0  0  0
   -0.8839   -4.4498   32.9920 C   0  0  0  0  0  0  0  0  0  0  0  0
   -1.2513   -5.6622   33.4345 C   0  0  0  0  0  0  0  0  0  0  0  0
   -1.1415   -6.8032   32.6822 N   0  0  0  0  0  0  0  0  0  0  0  0
   -0.6333   -6.8400   31.4152 C   0  0  0  0  0  0  0  0  0  0  0  0
   -0.7392   -7.8187   30.6878 O   0  0  0  0  0  0  0  0  0  0  0  0
    0.0723   -5.6009   31.0054 C   0  0  0  0  0  0  0  0  0  0  0  0
    1.0274   -5.6692   30.0001 C   0  0  0  0  0  0  0  0  0  0  0  0
    1.7907   -4.5540   29.6926 C   0  0  0  0  0  0  0  0  0  0  0  0
    1.5850   -3.3633   30.3749 C   0  0  0  0  0  0  0  0  0  0  0  0
    0.6337   -3.2798   31.3814 C   0  0  0  0  0  0  0  0  0  0  0  0
   -0.1157   -4.4102   31.7337 C   0  0  0  0  0  0  0  0  0  0  0  0
    1.2811   -5.0382   38.2464 C   0  0  0  0  0  0  0  0  0  0  0  0
   -0.0296   -5.1484   38.7411 C   0  0  0  0  0  0  0  0  0  0  0  0
   -0.3105   -6.0522   39.7569 C   0  0  0  0  0  0  0  0  0  0  0  0
    0.7211   -6.8143   40.2566 C   0  0  0  0  0  0  0  0  0  0  0  0
    2.0076   -6.6659   39.8312 C   0  0  0  0  0  0  0  0  0  0  0  0
    2.3216   -5.7736   38.8468 C   0  0  0  0  0  0  0  0  0  0  0  0
    2.8781   -7.4996   40.4552 O   0  0  0  0  0  0  0  0  0  0  0  0
    1.9678   -8.2597   41.2692 C   0  0  0  0  0  0  0  0  0  0  0  0
    0.6151   -7.7736   41.2060 O   0  0  0  0  0  0  0  0  0  0  0  0
    3.6692   -4.5409   34.8149 H   0  0  0  0  0  0  0  0  0  0  0  0
    4.3083   -6.1634   34.5371 H   0  0  0  0  0  0  0  0  0  0  0  0
    4.0981   -5.0360   33.1842 H   0  0  0  0  0  0  0  0  0  0  0  0
    2.2135   -6.6770   33.1350 H   0  0  0  0  0  0  0  0  0  0  0  0
    1.6539   -5.0658   33.5194 H   0  0  0  0  0  0  0  0  0  0  0  0
   -0.1968   -5.1139   36.0266 H   0  0  0  0  0  0  0  0  0  0  0  0
    2.6212   -4.4066   36.7154 H   0  0  0  0  0  0  0  0  0  0  0  0
    0.1798   -2.6939   37.2951 H   0  0  0  0  0  0  0  0  0  0  0  0
    1.8410   -2.3651   37.7235 H   0  0  0  0  0  0  0  0  0  0  0  0
    2.4584   -2.1141   35.5288 H   0  0  0  0  0  0  0  0  0  0  0  0
    1.1942   -0.5414   34.4691 H   0  0  0  0  0  0  0  0  0  0  0  0
    1.3302    0.9554   36.2163 H   0  0  0  0  0  0  0  0  0  0  0  0
    1.2561   -0.1876   37.3447 H   0  0  0  0  0  0  0  0  0  0  0  0
   -3.0696    1.1428   35.9827 H   0  0  0  0  0  0  0  0  0  0  0  0
   -1.0864   -2.4096   33.2041 H   0  0  0  0  0  0  0  0  0  0  0  0
   -1.7040   -5.8144   34.4072 H   0  0  0  0  0  0  0  0  0  0  0  0
   -1.4680   -7.6839   33.0748 H   0  0  0  0  0  0  0  0  0  0  0  0
    1.2065   -6.6040   29.4870 H   0  0  0  0  0  0  0  0  0  0  0  0
    2.5430   -4.6060   28.9094 H   0  0  0  0  0  0  0  0  0  0  0  0
    2.1807   -2.4881   30.1208 H   0  0  0  0  0  0  0  0  0  0  0  0
    0.5594   -2.3423   31.9230 H   0  0  0  0  0  0  0  0  0  0  0  0
   -0.8559   -4.6001   38.2956 H   0  0  0  0  0  0  0  0  0  0  0  0
   -1.3212   -6.1707   40.1313 H   0  0  0  0  0  0  0  0  0  0  0  0
    3.3395   -5.7321   38.4714 H   0  0  0  0  0  0  0  0  0  0  0  0
    1.9850   -9.3054   40.9394 H   0  0  0  0  0  0  0  0  0  0  0  0
    2.3076   -8.2150   42.3100 H   0  0  0  0  0  0  0  0  0  0  0  0
  1  2  1  0
  2  3  1  0
  3  4  2  0
  3  5  2  0
  3  6  1  0
  6  7  1  0
  7  8  1  0
  8  9  1  0
  9 10  1  0
 10 11  1  0
 10 12  1  0
 12 13  1  0
 13 14  1  0
 14 15  2  0
 15 16  1  0
 16 17  1  0
 17 18  2  0
 17 19  1  0
 19 20  1  0
 20 21  2  0
 21 22  1  0
 22 23  1  0
 23 24  2  0
 23 25  1  0
 25 26  2  0
 26 27  1  0
 27 28  2  0
 28 29  1  0
 29 30  2  0
  7 31  1  0
 31 32  2  0
 32 33  1  0
 33 34  2  0
 34 35  1  0
 35 36  2  0
 35 37  1  0
 37 38  1  0
 38 39  1  0
 16 12  2  0
 30 20  1  0
 36 31  1  0
 30 25  1  0
 39 34  1  0
  1 40  1  0
  1 41  1  0
  1 42  1  0
  2 43  1  0
  2 44  1  0
  6 45  1  0
  7 46  1  0
  8 47  1  0
  8 48  1  0
  9 49  1  0
 10 50  1  0
 11 51  1  0
 11 52  1  0
 14 53  1  0
 19 54  1  0
 21 55  1  0
 22 56  1  0
 26 57  1  0
 27 58  1  0
 28 59  1  0
 29 60  1  0
 32 61  1  0
 33 62  1  0
 36 63  1  0
 38 64  1  0
 38 65  1  0
M  END
>  <Energy>  (795) 
-12.069933621729332

>  <compound_id>  (795) 
4363

>  <target_id>  (795) 
1

>  <reference_id>  (795) 
153

>  <inspiration_ids>  (795) 
[153, 157]

>  <energy_score>  (795) 
-113.65559959038814

>  <distance_score>  (795) 
2.402254071248188

>  <path>  (795) 
/opt/xchem-fragalysis-2/maxwin/BulkDock/SCRATCH/505735/C4363-P153/C4363-P153.minimised.mol

>  <scratch_subdir>  (795) 
/opt/xchem-fragalysis-2/maxwin/BulkDock/SCRATCH/505735/C4363-P153

>  <fragmenstein_runtime>  (795) 
158.40565276145935

>  <fragmenstein_outcome>  (795) 
too moved

>  <fragmenstein_mode>  (795) 
expansion

>  <fragmenstein_error>  (795) 


$$$$
C4363-P157
     RDKit          3D

 65 69  0  0  0  0  0  0  0  0999 V2000
    5.1540   -6.9695   35.7830 C   0  0  0  0  0  0  0  0  0  0  0  0
    3.8022   -6.8792   36.4663 C   0  0  0  0  0  0  0  0  0  0  0  0
    2.4672   -7.0184   35.2799 S   0  0  0  0  0  0  0  0  0  0  0  0
    2.3508   -5.7878   34.5357 O   0  0  0  0  0  0  0  0  0  0  0  0
    2.6387   -8.2828   34.5960 O   0  0  0  0  0  0  0  0  0  0  0  0
    1.1146   -7.2125   36.1906 N   0  0  0  0  0  0  0  0  0  0  0  0
    0.4045   -6.0510   36.7232 C   0  0  0  0  0  0  0  0  0  0  0  0
   -0.9675   -6.5490   37.2387 C   0  0  0  0  0  0  0  0  0  0  0  0
   -1.9501   -7.0216   36.2075 N   0  0  0  0  0  0  0  0  0  0  0  0
   -2.3643   -8.4645   36.1775 C   0  0  0  0  0  0  0  0  0  0  0  0
   -1.0550   -8.7737   35.6792 N   0  0  0  0  0  0  0  0  0  0  0  0
   -4.1832   -8.7871   35.7761 C   0  0  0  0  0  0  0  0  0  0  0  0
   -5.6098   -7.9698   36.4602 O   0  0  0  0  0  0  0  0  0  0  0  0
   -6.9119   -6.9948   35.4795 C   0  0  0  0  0  0  0  0  0  0  0  0
   -5.8736   -7.0057   34.5916 N   0  0  0  0  0  0  0  0  0  0  0  0
   -4.3378   -8.1398   34.6578 C   0  0  0  0  0  0  0  0  0  0  0  0
   -2.7012   -8.0566   33.7365 C   0  0  0  0  0  0  0  0  0  0  0  0
   -2.4634   -9.0971   33.2491 O   0  0  0  0  0  0  0  0  0  0  0  0
   -1.9914   -6.7822   33.6307 N   0  0  0  0  0  0  0  0  0  0  0  0
   -0.9133   -6.4197   32.8679 C   0  0  0  0  0  0  0  0  0  0  0  0
   -0.4738   -7.3113   31.9632 C   0  0  0  0  0  0  0  0  0  0  0  0
    0.4066   -7.0049   30.9771 N   0  0  0  0  0  0  0  0  0  0  0  0
    0.9755   -5.7755   30.8061 C   0  0  0  0  0  0  0  0  0  0  0  0
    1.7766   -5.5765   29.9019 O   0  0  0  0  0  0  0  0  0  0  0  0
    0.5630   -4.7330   31.7764 C   0  0  0  0  0  0  0  0  0  0  0  0
    1.1106   -3.4520   31.6500 C   0  0  0  0  0  0  0  0  0  0  0  0
    0.7567   -2.4629   32.5597 C   0  0  0  0  0  0  0  0  0  0  0  0
   -0.1327   -2.7573   33.5895 C   0  0  0  0  0  0  0  0  0  0  0  0
   -0.6809   -4.0383   33.7106 C   0  0  0  0  0  0  0  0  0  0  0  0
   -0.3562   -5.0508   32.8028 C   0  0  0  0  0  0  0  0  0  0  0  0
    1.1687   -5.4218   37.8723 C   0  0  0  0  0  0  0  0  0  0  0  0
    1.5770   -4.0726   37.7907 C   0  0  0  0  0  0  0  0  0  0  0  0
    2.3408   -3.5001   38.8093 C   0  0  0  0  0  0  0  0  0  0  0  0
    2.6764   -4.2920   39.8871 C   0  0  0  0  0  0  0  0  0  0  0  0
    2.2764   -5.6013   39.9832 C   0  0  0  0  0  0  0  0  0  0  0  0
    1.5252   -6.1948   38.9987 C   0  0  0  0  0  0  0  0  0  0  0  0
    2.7282   -6.2062   41.1125 O   0  0  0  0  0  0  0  0  0  0  0  0
    3.4450   -5.1177   41.7313 C   0  0  0  0  0  0  0  0  0  0  0  0
    3.4342   -3.9066   40.9473 O   0  0  0  0  0  0  0  0  0  0  0  0
    5.2647   -6.1872   35.0252 H   0  0  0  0  0  0  0  0  0  0  0  0
    5.9585   -6.8545   36.5157 H   0  0  0  0  0  0  0  0  0  0  0  0
    5.2825   -7.9366   35.2865 H   0  0  0  0  0  0  0  0  0  0  0  0
    3.7177   -5.9156   36.9684 H   0  0  0  0  0  0  0  0  0  0  0  0
    3.6914   -7.6929   37.1887 H   0  0  0  0  0  0  0  0  0  0  0  0
    0.4385   -7.9120   35.8204 H   0  0  0  0  0  0  0  0  0  0  0  0
    0.2259   -5.3196   35.9342 H   0  0  0  0  0  0  0  0  0  0  0  0
   -0.7591   -7.3118   37.9903 H   0  0  0  0  0  0  0  0  0  0  0  0
   -1.4395   -5.7161   37.7766 H   0  0  0  0  0  0  0  0  0  0  0  0
   -2.7034   -6.3526   36.2315 H   0  0  0  0  0  0  0  0  0  0  0  0
   -2.4516   -9.2813   36.8718 H   0  0  0  0  0  0  0  0  0  0  0  0
   -0.8702   -9.7010   36.1223 H   0  0  0  0  0  0  0  0  0  0  0  0
   -1.1419   -9.1395   34.7292 H   0  0  0  0  0  0  0  0  0  0  0  0
   -7.5756   -7.1903   36.2412 H   0  0  0  0  0  0  0  0  0  0  0  0
   -2.4189   -6.1160   34.2434 H   0  0  0  0  0  0  0  0  0  0  0  0
   -0.8332   -8.3312   31.9007 H   0  0  0  0  0  0  0  0  0  0  0  0
    0.6723   -7.7252   30.3178 H   0  0  0  0  0  0  0  0  0  0  0  0
    1.8131   -3.2288   30.8505 H   0  0  0  0  0  0  0  0  0  0  0  0
    1.1797   -1.4655   32.4702 H   0  0  0  0  0  0  0  0  0  0  0  0
   -0.4014   -1.9856   34.3074 H   0  0  0  0  0  0  0  0  0  0  0  0
   -1.3430   -4.2232   34.5475 H   0  0  0  0  0  0  0  0  0  0  0  0
    1.3245   -3.4734   36.9170 H   0  0  0  0  0  0  0  0  0  0  0  0
    2.6730   -2.4694   38.7513 H   0  0  0  0  0  0  0  0  0  0  0  0
    1.2536   -7.2434   39.0807 H   0  0  0  0  0  0  0  0  0  0  0  0
    2.9923   -4.9086   42.7076 H   0  0  0  0  0  0  0  0  0  0  0  0
    4.4855   -5.4262   41.8847 H   0  0  0  0  0  0  0  0  0  0  0  0
  1  2  1  0
  2  3  1  0
  3  4  2  0
  3  5  2  0
  3  6  1  0
  6  7  1  0
  7  8  1  0
  8  9  1  0
  9 10  1  0
 10 11  1  0
 10 12  1  0
 12 13  1  0
 13 14  1  0
 14 15  2  0
 15 16  1  0
 16 17  1  0
 17 18  2  0
 17 19  1  0
 19 20  1  0
 20 21  2  0
 21 22  1  0
 22 23  1  0
 23 24  2  0
 23 25  1  0
 25 26  2  0
 26 27  1  0
 27 28  2  0
 28 29  1  0
 29 30  2  0
  7 31  1  0
 31 32  2  0
 32 33  1  0
 33 34  2  0
 34 35  1  0
 35 36  2  0
 35 37  1  0
 37 38  1  0
 38 39  1  0
 16 12  2  0
 30 20  1  0
 36 31  1  0
 30 25  1  0
 39 34  1  0
  1 40  1  0
  1 41  1  0
  1 42  1  0
  2 43  1  0
  2 44  1  0
  6 45  1  0
  7 46  1  0
  8 47  1  0
  8 48  1  0
  9 49  1  0
 10 50  1  0
 11 51  1  0
 11 52  1  0
 14 53  1  0
 19 54  1  0
 21 55  1  0
 22 56  1  0
 26 57  1  0
 27 58  1  0
 28 59  1  0
 29 60  1  0
 32 61  1  0
 33 62  1  0
 36 63  1  0
 38 64  1  0
 38 65  1  0
M  END
>  <Energy>  (796) 
393.1864549045988

>  <compound_id>  (796) 
4363

>  <target_id>  (796) 
1

>  <reference_id>  (796) 
157

>  <inspiration_ids>  (796) 
[153, 157]

>  <energy_score>  (796) 
306.0759845735224

>  <distance_score>  (796) 
2.7520695005706317

>  <path>  (796) 
/opt/xchem-fragalysis-2/maxwin/BulkDock/SCRATCH/505735/C4363-P157/C4363-P157.minimised.mol

>  <scratch_subdir>  (796) 
/opt/xchem-fragalysis-2/maxwin/BulkDock/SCRATCH/505735/C4363-P157

>  <fragmenstein_runtime>  (796) 
160.49278140068054

>  <fragmenstein_outcome>  (796) 
too moved

>  <fragmenstein_mode>  (796) 
expansion

>  <fragmenstein_error>  (796) 


$$$$
C4366-P153
     RDKit          3D

 60 63  0  0  0  0  0  0  0  0999 V2000
   -3.6461   -6.6229   42.4710 C   0  0  0  0  0  0  0  0  0  0  0  0
   -2.4439   -7.3960   42.5206 O   0  0  0  0  0  0  0  0  0  0  0  0
   -2.4955   -8.4552   43.3841 C   0  0  0  0  0  0  0  0  0  0  0  0
   -3.4677   -8.7542   44.0651 O   0  0  0  0  0  0  0  0  0  0  0  0
   -1.1681   -9.2059   43.4238 C   0  0  0  0  0  0  0  0  0  0  0  0
   -0.2182   -8.7284   42.4472 N   0  0  0  0  0  0  0  0  0  0  0  0
    0.9862   -9.4345   41.7926 C   0  0  0  0  0  0  0  0  0  0  0  0
    1.4470  -10.4863   41.9954 O   0  0  0  0  0  0  0  0  0  0  0  0
    1.5484   -8.5605   40.7329 C   0  0  0  0  0  0  0  0  0  0  0  0
    0.8679   -7.6076   39.9237 C   0  0  0  0  0  0  0  0  0  0  0  0
    1.8284   -7.1272   39.0726 C   0  0  0  0  0  0  0  0  0  0  0  0
    1.7853   -6.2180   37.9154 C   0  0  0  0  0  0  0  0  0  0  0  0
    1.6855   -4.7534   38.2845 C   0  0  0  0  0  0  0  0  0  0  0  0
    1.4937   -3.9537   37.0810 N   0  0  0  0  0  0  0  0  0  0  0  0
    0.9576   -2.6513   37.3453 C   0  0  0  0  0  0  0  0  0  0  0  0
    1.0140   -2.0291   36.0533 N   0  0  0  0  0  0  0  0  0  0  0  0
   -0.4138   -2.7141   37.9007 C   0  0  0  0  0  0  0  0  0  0  0  0
   -0.5743   -2.7409   39.2629 O   0  0  0  0  0  0  0  0  0  0  0  0
   -1.9112   -2.9329   39.4266 C   0  0  0  0  0  0  0  0  0  0  0  0
   -2.5965   -3.0348   38.3129 N   0  0  0  0  0  0  0  0  0  0  0  0
   -1.6611   -2.8033   37.3264 C   0  0  0  0  0  0  0  0  0  0  0  0
   -1.8601   -2.8092   35.8804 C   0  0  0  0  0  0  0  0  0  0  0  0
   -2.2829   -1.8868   35.3003 O   0  0  0  0  0  0  0  0  0  0  0  0
   -1.3197   -4.1639   35.3564 N   0  0  0  0  0  0  0  0  0  0  0  0
   -1.1113   -4.6014   34.0802 C   0  0  0  0  0  0  0  0  0  0  0  0
   -1.3791   -3.8911   32.9717 C   0  0  0  0  0  0  0  0  0  0  0  0
   -0.9910   -4.3212   31.7228 N   0  0  0  0  0  0  0  0  0  0  0  0
   -0.1077   -5.3551   31.5434 C   0  0  0  0  0  0  0  0  0  0  0  0
    0.1861   -5.8621   30.4724 O   0  0  0  0  0  0  0  0  0  0  0  0
    0.4473   -5.8659   32.7932 C   0  0  0  0  0  0  0  0  0  0  0  0
    1.7784   -6.1128   32.9833 C   0  0  0  0  0  0  0  0  0  0  0  0
    2.1615   -6.7380   34.1626 C   0  0  0  0  0  0  0  0  0  0  0  0
    1.1884   -7.2406   35.0180 C   0  0  0  0  0  0  0  0  0  0  0  0
   -0.0976   -6.7411   34.9397 C   0  0  0  0  0  0  0  0  0  0  0  0
   -0.3652   -5.8550   33.9101 C   0  0  0  0  0  0  0  0  0  0  0  0
    3.0132   -7.7216   39.3467 O   0  0  0  0  0  0  0  0  0  0  0  0
    2.8457   -8.6204   40.3819 N   0  0  0  0  0  0  0  0  0  0  0  0
   -3.4551   -5.7429   41.8513 H   0  0  0  0  0  0  0  0  0  0  0  0
   -3.9323   -6.2820   43.4710 H   0  0  0  0  0  0  0  0  0  0  0  0
   -4.4502   -7.2072   42.0134 H   0  0  0  0  0  0  0  0  0  0  0  0
   -0.7156   -9.0715   44.4098 H   0  0  0  0  0  0  0  0  0  0  0  0
   -1.3411  -10.2684   43.2339 H   0  0  0  0  0  0  0  0  0  0  0  0
   -0.2931   -7.7840   42.0874 H   0  0  0  0  0  0  0  0  0  0  0  0
   -0.1827   -7.3609   39.9136 H   0  0  0  0  0  0  0  0  0  0  0  0
    2.6478   -6.3897   37.2629 H   0  0  0  0  0  0  0  0  0  0  0  0
    0.8678   -6.4757   37.3876 H   0  0  0  0  0  0  0  0  0  0  0  0
    0.8648   -4.6518   39.0001 H   0  0  0  0  0  0  0  0  0  0  0  0
    2.5977   -4.4296   38.7999 H   0  0  0  0  0  0  0  0  0  0  0  0
    0.9749   -4.4028   36.3372 H   0  0  0  0  0  0  0  0  0  0  0  0
    1.6105   -2.0990   38.0317 H   0  0  0  0  0  0  0  0  0  0  0  0
    1.9793   -2.0838   35.7352 H   0  0  0  0  0  0  0  0  0  0  0  0
    0.7999   -1.0368   36.1417 H   0  0  0  0  0  0  0  0  0  0  0  0
   -2.2744   -3.0006   40.4426 H   0  0  0  0  0  0  0  0  0  0  0  0
   -0.9575   -4.7023   36.1269 H   0  0  0  0  0  0  0  0  0  0  0  0
   -1.9089   -2.9423   33.0031 H   0  0  0  0  0  0  0  0  0  0  0  0
   -1.2444   -3.7943   30.8922 H   0  0  0  0  0  0  0  0  0  0  0  0
    2.4809   -5.7883   32.2314 H   0  0  0  0  0  0  0  0  0  0  0  0
    3.2075   -6.9199   34.3885 H   0  0  0  0  0  0  0  0  0  0  0  0
    1.4682   -7.9074   35.8296 H   0  0  0  0  0  0  0  0  0  0  0  0
   -0.8093   -6.9331   35.7361 H   0  0  0  0  0  0  0  0  0  0  0  0
  1  2  1  0
  2  3  1  0
  3  4  2  0
  3  5  1  0
  5  6  1  0
  6  7  1  0
  7  8  2  0
  7  9  1  0
  9 10  1  0
 10 11  2  0
 11 12  1  0
 12 13  1  0
 13 14  1  0
 14 15  1  0
 15 16  1  0
 15 17  1  0
 17 18  1  0
 18 19  1  0
 19 20  2  0
 20 21  1  0
 21 22  1  0
 22 23  2  0
 22 24  1  0
 24 25  1  0
 25 26  2  0
 26 27  1  0
 27 28  1  0
 28 29  2  0
 28 30  1  0
 30 31  2  0
 31 32  1  0
 32 33  2  0
 33 34  1  0
 34 35  2  0
 11 36  1  0
 36 37  1  0
 37  9  2  0
 21 17  2  0
 35 25  1  0
 35 30  1  0
  1 38  1  0
  1 39  1  0
  1 40  1  0
  5 41  1  0
  5 42  1  0
  6 43  1  0
 10 44  1  0
 12 45  1  0
 12 46  1  0
 13 47  1  0
 13 48  1  0
 14 49  1  0
 15 50  1  0
 16 51  1  0
 16 52  1  0
 19 53  1  0
 24 54  1  0
 26 55  1  0
 27 56  1  0
 31 57  1  0
 32 58  1  0
 33 59  1  0
 34 60  1  0
M  END
>  <Energy>  (797) 
104.14764627113296

>  <compound_id>  (797) 
4366

>  <target_id>  (797) 
1

>  <reference_id>  (797) 
153

>  <inspiration_ids>  (797) 
[153, 164]

>  <energy_score>  (797) 
-10.947018395907378

>  <distance_score>  (797) 
2.6044345671930373

>  <path>  (797) 
/opt/xchem-fragalysis-2/maxwin/BulkDock/SCRATCH/505735/C4366-P153/C4366-P153.minimised.mol

>  <scratch_subdir>  (797) 
/opt/xchem-fragalysis-2/maxwin/BulkDock/SCRATCH/505735/C4366-P153

>  <fragmenstein_runtime>  (797) 
18.146493434906006

>  <fragmenstein_outcome>  (797) 
too moved

>  <fragmenstein_mode>  (797) 
expansion

>  <fragmenstein_error>  (797) 


$$$$
C4366-P164
     RDKit          3D

 60 63  0  0  0  0  0  0  0  0999 V2000
    4.9820  -13.9781   38.6826 C   0  0  0  0  0  0  0  0  0  0  0  0
    4.6570  -12.7387   39.3174 O   0  0  0  0  0  0  0  0  0  0  0  0
    5.0853  -12.6520   40.6089 C   0  0  0  0  0  0  0  0  0  0  0  0
    5.7338  -13.5088   41.1985 O   0  0  0  0  0  0  0  0  0  0  0  0
    4.6623  -11.3460   41.2672 C   0  0  0  0  0  0  0  0  0  0  0  0
    4.0523  -10.3812   40.3932 N   0  0  0  0  0  0  0  0  0  0  0  0
    2.8635   -9.4341   40.6251 C   0  0  0  0  0  0  0  0  0  0  0  0
    2.1402   -9.3384   41.5334 O   0  0  0  0  0  0  0  0  0  0  0  0
    2.7916   -8.5016   39.4872 C   0  0  0  0  0  0  0  0  0  0  0  0
    1.9660   -7.3588   39.3242 C   0  0  0  0  0  0  0  0  0  0  0  0
    2.4832   -6.7284   38.2163 C   0  0  0  0  0  0  0  0  0  0  0  0
    2.2469   -5.4308   37.5363 C   0  0  0  0  0  0  0  0  0  0  0  0
    2.2745   -4.2678   38.5418 C   0  0  0  0  0  0  0  0  0  0  0  0
    1.8906   -2.9058   38.1294 N   0  0  0  0  0  0  0  0  0  0  0  0
    0.6665   -2.7410   37.3845 C   0  0  0  0  0  0  0  0  0  0  0  0
    1.1606   -2.9236   36.0470 N   0  0  0  0  0  0  0  0  0  0  0  0
   -0.3847   -3.6594   37.8799 C   0  0  0  0  0  0  0  0  0  0  0  0
   -0.6091   -3.7471   39.2306 O   0  0  0  0  0  0  0  0  0  0  0  0
   -1.2449   -4.9419   39.3591 C   0  0  0  0  0  0  0  0  0  0  0  0
   -1.4206   -5.5989   38.2321 N   0  0  0  0  0  0  0  0  0  0  0  0
   -1.0701   -4.6787   37.2708 C   0  0  0  0  0  0  0  0  0  0  0  0
   -1.0641   -4.8339   35.8295 C   0  0  0  0  0  0  0  0  0  0  0  0
   -1.0189   -3.8859   35.1521 O   0  0  0  0  0  0  0  0  0  0  0  0
   -1.0203   -6.3250   35.4606 N   0  0  0  0  0  0  0  0  0  0  0  0
   -0.8286   -6.9291   34.2659 C   0  0  0  0  0  0  0  0  0  0  0  0
   -1.6188   -7.9023   33.8211 C   0  0  0  0  0  0  0  0  0  0  0  0
   -1.6476   -8.2419   32.4939 N   0  0  0  0  0  0  0  0  0  0  0  0
   -0.9445   -7.5814   31.5081 C   0  0  0  0  0  0  0  0  0  0  0  0
   -1.1313   -7.8377   30.3262 O   0  0  0  0  0  0  0  0  0  0  0  0
    0.0397   -6.5748   31.9641 C   0  0  0  0  0  0  0  0  0  0  0  0
    0.8889   -5.9350   31.0623 C   0  0  0  0  0  0  0  0  0  0  0  0
    1.8955   -5.1024   31.5408 C   0  0  0  0  0  0  0  0  0  0  0  0
    2.0710   -4.9394   32.9080 C   0  0  0  0  0  0  0  0  0  0  0  0
    1.2097   -5.5635   33.7992 C   0  0  0  0  0  0  0  0  0  0  0  0
    0.1436   -6.3360   33.3368 C   0  0  0  0  0  0  0  0  0  0  0  0
    3.4508   -7.5044   37.6716 O   0  0  0  0  0  0  0  0  0  0  0  0
    3.6502   -8.6134   38.4574 N   0  0  0  0  0  0  0  0  0  0  0  0
    6.0648  -14.1363   38.6742 H   0  0  0  0  0  0  0  0  0  0  0  0
    4.6312  -13.9296   37.6479 H   0  0  0  0  0  0  0  0  0  0  0  0
    4.4697  -14.8048   39.1815 H   0  0  0  0  0  0  0  0  0  0  0  0
    5.5570  -10.8701   41.6791 H   0  0  0  0  0  0  0  0  0  0  0  0
    3.9574  -11.5551   42.0712 H   0  0  0  0  0  0  0  0  0  0  0  0
    4.4138  -10.2481   39.4499 H   0  0  0  0  0  0  0  0  0  0  0  0
    1.1947   -7.0081   39.9929 H   0  0  0  0  0  0  0  0  0  0  0  0
    3.0102   -5.2575   36.7682 H   0  0  0  0  0  0  0  0  0  0  0  0
    1.2978   -5.5269   37.0245 H   0  0  0  0  0  0  0  0  0  0  0  0
    1.7031   -4.5340   39.4388 H   0  0  0  0  0  0  0  0  0  0  0  0
    3.3069   -4.1857   38.9096 H   0  0  0  0  0  0  0  0  0  0  0  0
    1.8091   -2.3488   38.9793 H   0  0  0  0  0  0  0  0  0  0  0  0
    0.3077   -1.7104   37.4868 H   0  0  0  0  0  0  0  0  0  0  0  0
    0.3905   -2.7736   35.3863 H   0  0  0  0  0  0  0  0  0  0  0  0
    1.8433   -2.1914   35.8769 H   0  0  0  0  0  0  0  0  0  0  0  0
   -1.5151   -5.2462   40.3612 H   0  0  0  0  0  0  0  0  0  0  0  0
   -1.1664   -6.8857   36.2968 H   0  0  0  0  0  0  0  0  0  0  0  0
   -2.3697   -8.3670   34.4492 H   0  0  0  0  0  0  0  0  0  0  0  0
   -2.3567   -8.8970   32.1766 H   0  0  0  0  0  0  0  0  0  0  0  0
    0.7814   -6.0985   29.9938 H   0  0  0  0  0  0  0  0  0  0  0  0
    2.5579   -4.5971   30.8415 H   0  0  0  0  0  0  0  0  0  0  0  0
    2.8702   -4.3043   33.2839 H   0  0  0  0  0  0  0  0  0  0  0  0
    1.3792   -5.4022   34.8545 H   0  0  0  0  0  0  0  0  0  0  0  0
  1  2  1  0
  2  3  1  0
  3  4  2  0
  3  5  1  0
  5  6  1  0
  6  7  1  0
  7  8  2  0
  7  9  1  0
  9 10  1  0
 10 11  2  0
 11 12  1  0
 12 13  1  0
 13 14  1  0
 14 15  1  0
 15 16  1  0
 15 17  1  0
 17 18  1  0
 18 19  1  0
 19 20  2  0
 20 21  1  0
 21 22  1  0
 22 23  2  0
 22 24  1  0
 24 25  1  0
 25 26  2  0
 26 27  1  0
 27 28  1  0
 28 29  2  0
 28 30  1  0
 30 31  2  0
 31 32  1  0
 32 33  2  0
 33 34  1  0
 34 35  2  0
 11 36  1  0
 36 37  1  0
 37  9  2  0
 21 17  2  0
 35 25  1  0
 35 30  1  0
  1 38  1  0
  1 39  1  0
  1 40  1  0
  5 41  1  0
  5 42  1  0
  6 43  1  0
 10 44  1  0
 12 45  1  0
 12 46  1  0
 13 47  1  0
 13 48  1  0
 14 49  1  0
 15 50  1  0
 16 51  1  0
 16 52  1  0
 19 53  1  0
 24 54  1  0
 26 55  1  0
 27 56  1  0
 31 57  1  0
 32 58  1  0
 33 59  1  0
 34 60  1  0
M  END
>  <Energy>  (798) 
71.549576610003029

>  <compound_id>  (798) 
4366

>  <target_id>  (798) 
1

>  <reference_id>  (798) 
164

>  <inspiration_ids>  (798) 
[153, 164]

>  <energy_score>  (798) 
-43.54508805703671

>  <distance_score>  (798) 
1.996455009635239

>  <path>  (798) 
/opt/xchem-fragalysis-2/maxwin/BulkDock/SCRATCH/505735/C4366-P164/C4366-P164.minimised.mol

>  <scratch_subdir>  (798) 
/opt/xchem-fragalysis-2/maxwin/BulkDock/SCRATCH/505735/C4366-P164

>  <fragmenstein_runtime>  (798) 
22.67221975326538

>  <fragmenstein_outcome>  (798) 
too moved

>  <fragmenstein_mode>  (798) 
expansion

>  <fragmenstein_error>  (798) 


$$$$
C4368-P153
     RDKit          3D

 73 78  0  0  0  0  0  0  0  0999 V2000
    0.0238   -9.9375   42.8506 C   0  0  0  0  0  0  0  0  0  0  0  0
   -0.8441   -8.6955   41.9094 S   0  0  0  0  0  0  0  0  0  0  0  0
   -0.7934   -7.4504   42.6449 O   0  0  0  0  0  0  0  0  0  0  0  0
   -2.1121   -9.2703   41.5200 O   0  0  0  0  0  0  0  0  0  0  0  0
    0.0698   -8.5674   40.5042 N   0  0  0  0  0  0  0  0  0  0  0  0
    1.4640   -8.2648   40.5434 C   0  0  0  0  0  0  0  0  0  0  0  0
    2.0199   -7.3882   41.4631 C   0  0  0  0  0  0  0  0  0  0  0  0
    3.3989   -7.2263   41.5376 C   0  0  0  0  0  0  0  0  0  0  0  0
    4.2326   -7.9358   40.6869 C   0  0  0  0  0  0  0  0  0  0  0  0
    3.6961   -8.7183   39.6669 C   0  0  0  0  0  0  0  0  0  0  0  0
    4.6310   -9.3736   38.7091 C   0  0  0  0  0  0  0  0  0  0  0  0
    4.6615  -10.7247   38.6739 C   0  0  0  0  0  0  0  0  0  0  0  0
    5.5481  -11.3808   37.8196 N   0  0  0  0  0  0  0  0  0  0  0  0
    5.7546  -12.7224   37.5524 C   0  0  0  0  0  0  0  0  0  0  0  0
    5.0438  -13.7191   38.1284 N   0  0  0  0  0  0  0  0  0  0  0  0
    6.7079  -12.8438   36.6541 N   0  0  0  0  0  0  0  0  0  0  0  0
    7.1559  -11.5876   36.3170 N   0  0  0  0  0  0  0  0  0  0  0  0
    6.4469  -10.7203   37.0016 C   0  0  0  0  0  0  0  0  0  0  0  0
    6.4500   -9.3046   37.0281 C   0  0  0  0  0  0  0  0  0  0  0  0
    5.5905   -8.6352   37.8274 C   0  0  0  0  0  0  0  0  0  0  0  0
    5.5021   -7.1287   37.8611 C   0  0  0  0  0  0  0  0  0  0  0  0
    6.3090   -6.2759   36.8657 C   0  0  0  0  0  0  0  0  0  0  0  0
    5.7632   -4.9079   36.9625 N   0  0  0  0  0  0  0  0  0  0  0  0
    6.4787   -3.9146   36.2047 C   0  0  0  0  0  0  0  0  0  0  0  0
    5.7758   -2.7011   36.5226 N   0  0  0  0  0  0  0  0  0  0  0  0
    6.4677   -4.1381   34.7445 C   0  0  0  0  0  0  0  0  0  0  0  0
    7.6977   -3.9754   34.1474 O   0  0  0  0  0  0  0  0  0  0  0  0
    7.4743   -4.1845   32.8311 C   0  0  0  0  0  0  0  0  0  0  0  0
    6.2404   -4.4893   32.5319 N   0  0  0  0  0  0  0  0  0  0  0  0
    5.5523   -4.4594   33.7535 C   0  0  0  0  0  0  0  0  0  0  0  0
    4.1015   -4.7892   33.7611 C   0  0  0  0  0  0  0  0  0  0  0  0
    3.5773   -4.7724   32.7164 O   0  0  0  0  0  0  0  0  0  0  0  0
    3.5533   -5.2012   35.1549 N   0  0  0  0  0  0  0  0  0  0  0  0
    2.3402   -5.7392   35.5132 C   0  0  0  0  0  0  0  0  0  0  0  0
    1.5415   -6.2619   34.5665 C   0  0  0  0  0  0  0  0  0  0  0  0
    0.3209   -6.8041   34.8396 N   0  0  0  0  0  0  0  0  0  0  0  0
   -0.2720   -6.7965   36.0724 C   0  0  0  0  0  0  0  0  0  0  0  0
   -1.4211   -7.1932   36.2041 O   0  0  0  0  0  0  0  0  0  0  0  0
    0.5334   -6.2218   37.1762 C   0  0  0  0  0  0  0  0  0  0  0  0
   -0.0753   -6.0272   38.4205 C   0  0  0  0  0  0  0  0  0  0  0  0
    0.5826   -5.3141   39.4143 C   0  0  0  0  0  0  0  0  0  0  0  0
    1.8758   -4.8631   39.1891 C   0  0  0  0  0  0  0  0  0  0  0  0
    2.4944   -5.0923   37.9557 C   0  0  0  0  0  0  0  0  0  0  0  0
    1.8301   -5.7400   36.9089 C   0  0  0  0  0  0  0  0  0  0  0  0
    2.3009   -8.8361   39.5842 C   0  0  0  0  0  0  0  0  0  0  0  0
    1.0087   -9.5659   43.1348 H   0  0  0  0  0  0  0  0  0  0  0  0
   -0.5610  -10.1360   43.7521 H   0  0  0  0  0  0  0  0  0  0  0  0
    0.1019  -10.8510   42.2617 H   0  0  0  0  0  0  0  0  0  0  0  0
   -0.2336   -9.2229   39.7734 H   0  0  0  0  0  0  0  0  0  0  0  0
    1.4064   -6.8270   42.1610 H   0  0  0  0  0  0  0  0  0  0  0  0
    3.8224   -6.5706   42.2949 H   0  0  0  0  0  0  0  0  0  0  0  0
    5.3093   -7.8435   40.8116 H   0  0  0  0  0  0  0  0  0  0  0  0
    4.0331  -11.3561   39.2878 H   0  0  0  0  0  0  0  0  0  0  0  0
    5.3994  -14.6509   37.8669 H   0  0  0  0  0  0  0  0  0  0  0  0
    4.9113  -13.6924   39.1341 H   0  0  0  0  0  0  0  0  0  0  0  0
    7.1543   -8.8082   36.3712 H   0  0  0  0  0  0  0  0  0  0  0  0
    4.4454   -6.8917   37.7092 H   0  0  0  0  0  0  0  0  0  0  0  0
    5.7791   -6.7796   38.8623 H   0  0  0  0  0  0  0  0  0  0  0  0
    7.3730   -6.2951   37.1272 H   0  0  0  0  0  0  0  0  0  0  0  0
    6.1848   -6.6647   35.8498 H   0  0  0  0  0  0  0  0  0  0  0  0
    5.8400   -4.6236   37.9405 H   0  0  0  0  0  0  0  0  0  0  0  0
    7.5107   -3.8321   36.5664 H   0  0  0  0  0  0  0  0  0  0  0  0
    5.8746   -2.4812   37.5074 H   0  0  0  0  0  0  0  0  0  0  0  0
    4.7829   -2.8269   36.3453 H   0  0  0  0  0  0  0  0  0  0  0  0
    8.3216   -4.0875   32.1669 H   0  0  0  0  0  0  0  0  0  0  0  0
    4.3067   -5.1728   35.8386 H   0  0  0  0  0  0  0  0  0  0  0  0
    1.8139   -6.2859   33.5162 H   0  0  0  0  0  0  0  0  0  0  0  0
   -0.2624   -7.1628   34.0917 H   0  0  0  0  0  0  0  0  0  0  0  0
   -1.0909   -6.3651   38.5983 H   0  0  0  0  0  0  0  0  0  0  0  0
    0.0856   -5.1299   40.3645 H   0  0  0  0  0  0  0  0  0  0  0  0
    2.3954   -4.3096   39.9668 H   0  0  0  0  0  0  0  0  0  0  0  0
    3.4633   -4.6387   37.8064 H   0  0  0  0  0  0  0  0  0  0  0  0
    1.8657   -9.3850   38.7627 H   0  0  0  0  0  0  0  0  0  0  0  0
  1  2  1  0
  2  3  2  0
  2  4  2  0
  2  5  1  0
  5  6  1  0
  6  7  2  0
  7  8  1  0
  8  9  2  0
  9 10  1  0
 10 11  1  0
 11 12  2  0
 12 13  1  0
 13 14  1  0
 14 15  1  0
 14 16  2  0
 16 17  1  0
 17 18  2  0
 18 19  1  0
 19 20  2  0
 20 21  1  0
 21 22  1  0
 22 23  1  0
 23 24  1  0
 24 25  1  0
 24 26  1  0
 26 27  1  0
 27 28  1  0
 28 29  2  0
 29 30  1  0
 30 31  1  0
 31 32  2  0
 31 33  1  0
 33 34  1  0
 34 35  2  0
 35 36  1  0
 36 37  1  0
 37 38  2  0
 37 39  1  0
 39 40  2  0
 40 41  1  0
 41 42  2  0
 42 43  1  0
 43 44  2  0
 10 45  2  0
 45  6  1  0
 20 11  1  0
 30 26  2  0
 44 34  1  0
 18 13  1  0
 44 39  1  0
  1 46  1  0
  1 47  1  0
  1 48  1  0
  5 49  1  0
  7 50  1  0
  8 51  1  0
  9 52  1  0
 12 53  1  0
 15 54  1  0
 15 55  1  0
 19 56  1  0
 21 57  1  0
 21 58  1  0
 22 59  1  0
 22 60  1  0
 23 61  1  0
 24 62  1  0
 25 63  1  0
 25 64  1  0
 28 65  1  0
 33 66  1  0
 35 67  1  0
 36 68  1  0
 40 69  1  0
 41 70  1  0
 42 71  1  0
 43 72  1  0
 45 73  1  0
M  END
>  <Energy>  (799) 
13.4424829858729

>  <compound_id>  (799) 
4368

>  <target_id>  (799) 
1

>  <reference_id>  (799) 
153

>  <inspiration_ids>  (799) 
[153, 166]

>  <energy_score>  (799) 
-66.83220190936983

>  <distance_score>  (799) 
2.75559965216106

>  <path>  (799) 
/opt/xchem-fragalysis-2/maxwin/BulkDock/SCRATCH/505735/C4368-P153/C4368-P153.minimised.mol

>  <scratch_subdir>  (799) 
/opt/xchem-fragalysis-2/maxwin/BulkDock/SCRATCH/505735/C4368-P153

>  <fragmenstein_runtime>  (799) 
18.993489742279053

>  <fragmenstein_outcome>  (799) 
too moved

>  <fragmenstein_mode>  (799) 
expansion

>  <fragmenstein_error>  (799) 


$$$$
C4368-P166
     RDKit          3D

 73 78  0  0  0  0  0  0  0  0999 V2000
   -2.1942   -6.9076   42.6123 C   0  0  0  0  0  0  0  0  0  0  0  0
   -0.5677   -7.1232   43.2991 S   0  0  0  0  0  0  0  0  0  0  0  0
   -0.2582   -8.5347   43.3530 O   0  0  0  0  0  0  0  0  0  0  0  0
   -0.4766   -6.2899   44.4802 O   0  0  0  0  0  0  0  0  0  0  0  0
    0.3859   -6.3474   42.1373 N   0  0  0  0  0  0  0  0  0  0  0  0
    1.1259   -7.1737   41.2414 C   0  0  0  0  0  0  0  0  0  0  0  0
    0.5095   -7.6933   40.1131 C   0  0  0  0  0  0  0  0  0  0  0  0
    1.2203   -8.5380   39.2720 C   0  0  0  0  0  0  0  0  0  0  0  0
    2.5468   -8.8524   39.5496 C   0  0  0  0  0  0  0  0  0  0  0  0
    3.1741   -8.3612   40.7027 C   0  0  0  0  0  0  0  0  0  0  0  0
    4.5695   -8.7750   40.9980 C   0  0  0  0  0  0  0  0  0  0  0  0
    4.7754  -10.1126   41.0054 C   0  0  0  0  0  0  0  0  0  0  0  0
    6.0583  -10.6239   41.1325 N   0  0  0  0  0  0  0  0  0  0  0  0
    6.5376  -11.9127   41.0380 C   0  0  0  0  0  0  0  0  0  0  0  0
    5.7310  -12.9798   40.8415 N   0  0  0  0  0  0  0  0  0  0  0  0
    7.8527  -11.8908   41.0929 N   0  0  0  0  0  0  0  0  0  0  0  0
    8.2576  -10.5882   41.2871 N   0  0  0  0  0  0  0  0  0  0  0  0
    7.1779   -9.8394   41.2989 C   0  0  0  0  0  0  0  0  0  0  0  0
    6.9833   -8.4416   41.3892 C   0  0  0  0  0  0  0  0  0  0  0  0
    5.7549   -7.8936   41.2110 C   0  0  0  0  0  0  0  0  0  0  0  0
    5.6041   -6.3793   41.1892 C   0  0  0  0  0  0  0  0  0  0  0  0
    6.7036   -5.5980   40.4261 C   0  0  0  0  0  0  0  0  0  0  0  0
    6.6722   -5.9428   39.0138 N   0  0  0  0  0  0  0  0  0  0  0  0
    7.8770   -6.4746   38.4327 C   0  0  0  0  0  0  0  0  0  0  0  0
    8.6235   -5.3240   37.9950 N   0  0  0  0  0  0  0  0  0  0  0  0
    7.5414   -7.3611   37.2807 C   0  0  0  0  0  0  0  0  0  0  0  0
    8.3927   -8.4029   37.0078 O   0  0  0  0  0  0  0  0  0  0  0  0
    7.7509   -9.1111   36.0387 C   0  0  0  0  0  0  0  0  0  0  0  0
    6.5840   -8.6326   35.6657 N   0  0  0  0  0  0  0  0  0  0  0  0
    6.4665   -7.4713   36.4168 C   0  0  0  0  0  0  0  0  0  0  0  0
    5.2866   -6.6099   36.4067 C   0  0  0  0  0  0  0  0  0  0  0  0
    5.3589   -5.4550   36.5700 O   0  0  0  0  0  0  0  0  0  0  0  0
    4.0485   -7.5259   36.2553 N   0  0  0  0  0  0  0  0  0  0  0  0
    2.7145   -7.2420   36.3622 C   0  0  0  0  0  0  0  0  0  0  0  0
    1.8248   -8.0287   35.7447 C   0  0  0  0  0  0  0  0  0  0  0  0
    0.4801   -7.7781   35.7250 N   0  0  0  0  0  0  0  0  0  0  0  0
   -0.1031   -6.6949   36.3299 C   0  0  0  0  0  0  0  0  0  0  0  0
   -1.2916   -6.4381   36.1843 O   0  0  0  0  0  0  0  0  0  0  0  0
    0.7890   -5.8963   37.2001 C   0  0  0  0  0  0  0  0  0  0  0  0
    0.2097   -4.9529   38.0578 C   0  0  0  0  0  0  0  0  0  0  0  0
    0.9997   -4.2629   38.9695 C   0  0  0  0  0  0  0  0  0  0  0  0
    2.3501   -4.5728   39.0660 C   0  0  0  0  0  0  0  0  0  0  0  0
    2.9125   -5.5514   38.2347 C   0  0  0  0  0  0  0  0  0  0  0  0
    2.1660   -6.1838   37.2357 C   0  0  0  0  0  0  0  0  0  0  0  0
    2.4408   -7.5276   41.5546 C   0  0  0  0  0  0  0  0  0  0  0  0
   -2.9183   -7.2740   43.3435 H   0  0  0  0  0  0  0  0  0  0  0  0
   -2.3646   -5.8464   42.4229 H   0  0  0  0  0  0  0  0  0  0  0  0
   -2.2715   -7.4905   41.6952 H   0  0  0  0  0  0  0  0  0  0  0  0
    0.9263   -5.6097   42.5914 H   0  0  0  0  0  0  0  0  0  0  0  0
   -0.5160   -7.4378   39.8767 H   0  0  0  0  0  0  0  0  0  0  0  0
    0.7344   -8.9519   38.3927 H   0  0  0  0  0  0  0  0  0  0  0  0
    3.0770   -9.5019   38.8568 H   0  0  0  0  0  0  0  0  0  0  0  0
    3.9908  -10.8450   40.8547 H   0  0  0  0  0  0  0  0  0  0  0  0
    4.9391  -13.0994   41.4670 H   0  0  0  0  0  0  0  0  0  0  0  0
    6.2569  -13.8688   40.8438 H   0  0  0  0  0  0  0  0  0  0  0  0
    7.8693   -7.8438   41.5626 H   0  0  0  0  0  0  0  0  0  0  0  0
    4.6461   -6.0931   40.7455 H   0  0  0  0  0  0  0  0  0  0  0  0
    5.5723   -6.0232   42.2269 H   0  0  0  0  0  0  0  0  0  0  0  0
    6.4899   -4.5269   40.5273 H   0  0  0  0  0  0  0  0  0  0  0  0
    7.6894   -5.7455   40.8807 H   0  0  0  0  0  0  0  0  0  0  0  0
    6.4096   -5.1378   38.4370 H   0  0  0  0  0  0  0  0  0  0  0  0
    8.4585   -7.0570   39.1564 H   0  0  0  0  0  0  0  0  0  0  0  0
    9.4812   -5.6485   37.5522 H   0  0  0  0  0  0  0  0  0  0  0  0
    8.9112   -4.7987   38.8147 H   0  0  0  0  0  0  0  0  0  0  0  0
    8.2525  -10.0001   35.6816 H   0  0  0  0  0  0  0  0  0  0  0  0
    4.3512   -8.4736   36.0430 H   0  0  0  0  0  0  0  0  0  0  0  0
    2.1468   -8.9046   35.2076 H   0  0  0  0  0  0  0  0  0  0  0  0
   -0.1661   -8.4188   35.2682 H   0  0  0  0  0  0  0  0  0  0  0  0
   -0.8595   -4.7556   38.0146 H   0  0  0  0  0  0  0  0  0  0  0  0
    0.5560   -3.5199   39.6259 H   0  0  0  0  0  0  0  0  0  0  0  0
    2.9717   -4.0762   39.8063 H   0  0  0  0  0  0  0  0  0  0  0  0
    3.9475   -5.8096   38.4159 H   0  0  0  0  0  0  0  0  0  0  0  0
    2.8947   -7.1646   42.4725 H   0  0  0  0  0  0  0  0  0  0  0  0
  1  2  1  0
  2  3  2  0
  2  4  2  0
  2  5  1  0
  5  6  1  0
  6  7  2  0
  7  8  1  0
  8  9  2  0
  9 10  1  0
 10 11  1  0
 11 12  2  0
 12 13  1  0
 13 14  1  0
 14 15  1  0
 14 16  2  0
 16 17  1  0
 17 18  2  0
 18 19  1  0
 19 20  2  0
 20 21  1  0
 21 22  1  0
 22 23  1  0
 23 24  1  0
 24 25  1  0
 24 26  1  0
 26 27  1  0
 27 28  1  0
 28 29  2  0
 29 30  1  0
 30 31  1  0
 31 32  2  0
 31 33  1  0
 33 34  1  0
 34 35  2  0
 35 36  1  0
 36 37  1  0
 37 38  2  0
 37 39  1  0
 39 40  2  0
 40 41  1  0
 41 42  2  0
 42 43  1  0
 43 44  2  0
 10 45  2  0
 45  6  1  0
 20 11  1  0
 30 26  2  0
 44 34  1  0
 18 13  1  0
 44 39  1  0
  1 46  1  0
  1 47  1  0
  1 48  1  0
  5 49  1  0
  7 50  1  0
  8 51  1  0
  9 52  1  0
 12 53  1  0
 15 54  1  0
 15 55  1  0
 19 56  1  0
 21 57  1  0
 21 58  1  0
 22 59  1  0
 22 60  1  0
 23 61  1  0
 24 62  1  0
 25 63  1  0
 25 64  1  0
 28 65  1  0
 33 66  1  0
 35 67  1  0
 36 68  1  0
 40 69  1  0
 41 70  1  0
 42 71  1  0
 43 72  1  0
 45 73  1  0
M  END
>  <Energy>  (800) 
10.520159089492543

>  <compound_id>  (800) 
4368

>  <target_id>  (800) 
1

>  <reference_id>  (800) 
166

>  <inspiration_ids>  (800) 
[153, 166]

>  <energy_score>  (800) 
-69.7545258057507

>  <distance_score>  (800) 
2.9928240534941413

>  <path>  (800) 
/opt/xchem-fragalysis-2/maxwin/BulkDock/SCRATCH/505735/C4368-P166/C4368-P166.minimised.mol

>  <scratch_subdir>  (800) 
/opt/xchem-fragalysis-2/maxwin/BulkDock/SCRATCH/505735/C4368-P166

>  <fragmenstein_runtime>  (800) 
16.903635501861572

>  <fragmenstein_outcome>  (800) 
too moved

>  <fragmenstein_mode>  (800) 
expansion

>  <fragmenstein_error>  (800) 


$$$$
C4369-P153
     RDKit          3D

 72 76  0  0  0  0  0  0  0  0999 V2000
    7.1741   -5.1165   37.1488 N   0  0  0  0  0  0  0  0  0  0  0  0
    6.3478   -3.9359   37.2190 C   0  0  0  0  0  0  0  0  0  0  0  0
    5.4640   -4.2522   38.3131 N   0  0  0  0  0  0  0  0  0  0  0  0
    4.6905   -3.1069   38.8021 C   0  0  0  0  0  0  0  0  0  0  0  0
    3.3592   -3.5099   39.5178 C   0  0  0  0  0  0  0  0  0  0  0  0
    3.2727   -3.5424   41.0341 N   0  0  0  0  0  0  0  0  0  0  0  0
    3.7302   -4.9811   40.8164 C   0  0  0  0  0  0  0  0  0  0  0  0
    2.6828   -6.0204   40.4239 C   0  0  0  0  0  0  0  0  0  0  0  0
    3.0836   -7.1536   39.6999 C   0  0  0  0  0  0  0  0  0  0  0  0
    2.1480   -8.1112   39.3140 C   0  0  0  0  0  0  0  0  0  0  0  0
    0.8068   -7.9516   39.6534 C   0  0  0  0  0  0  0  0  0  0  0  0
    0.3974   -6.8413   40.3868 C   0  0  0  0  0  0  0  0  0  0  0  0
    1.3324   -5.8840   40.7804 C   0  0  0  0  0  0  0  0  0  0  0  0
    4.1079   -2.9006   42.0450 C   0  0  0  0  0  0  0  0  0  0  0  0
    5.0969   -2.2795   41.9291 O   0  0  0  0  0  0  0  0  0  0  0  0
    3.3250   -3.2120   43.2266 N   0  0  0  0  0  0  0  0  0  0  0  0
    3.4683   -2.7779   44.5941 C   0  0  0  0  0  0  0  0  0  0  0  0
    4.8714   -3.0273   45.1414 C   0  0  0  0  0  0  0  0  0  0  0  0
    4.9801   -2.6515   46.5303 N   0  0  0  0  0  0  0  0  0  0  0  0
    4.7715   -3.4495   47.6107 C   0  0  0  0  0  0  0  0  0  0  0  0
    4.9500   -2.7488   48.7068 N   0  0  0  0  0  0  0  0  0  0  0  0
    5.2966   -1.4690   48.3326 N   0  0  0  0  0  0  0  0  0  0  0  0
    5.3187   -1.4294   47.0201 C   0  0  0  0  0  0  0  0  0  0  0  0
    5.6921   -3.7137   35.8973 C   0  0  0  0  0  0  0  0  0  0  0  0
    6.3115   -2.8257   35.0493 O   0  0  0  0  0  0  0  0  0  0  0  0
    5.5443   -2.8311   33.9282 C   0  0  0  0  0  0  0  0  0  0  0  0
    4.5000   -3.6275   33.9648 N   0  0  0  0  0  0  0  0  0  0  0  0
    4.5803   -4.2040   35.2313 C   0  0  0  0  0  0  0  0  0  0  0  0
    3.5804   -5.1631   35.7214 C   0  0  0  0  0  0  0  0  0  0  0  0
    3.6558   -5.5918   36.8351 O   0  0  0  0  0  0  0  0  0  0  0  0
    2.6010   -5.3839   34.6971 N   0  0  0  0  0  0  0  0  0  0  0  0
    1.4182   -6.0763   34.7179 C   0  0  0  0  0  0  0  0  0  0  0  0
    0.9474   -6.6449   35.8409 C   0  0  0  0  0  0  0  0  0  0  0  0
   -0.2507   -7.3036   35.8906 N   0  0  0  0  0  0  0  0  0  0  0  0
   -1.1030   -7.4394   34.8261 C   0  0  0  0  0  0  0  0  0  0  0  0
   -2.2574   -7.8292   34.9574 O   0  0  0  0  0  0  0  0  0  0  0  0
   -0.5477   -7.0265   33.5105 C   0  0  0  0  0  0  0  0  0  0  0  0
   -1.1983   -7.4169   32.3348 C   0  0  0  0  0  0  0  0  0  0  0  0
   -0.7211   -6.9770   31.1035 C   0  0  0  0  0  0  0  0  0  0  0  0
    0.3804   -6.1304   31.0475 C   0  0  0  0  0  0  0  0  0  0  0  0
    1.0635   -5.7888   32.2171 C   0  0  0  0  0  0  0  0  0  0  0  0
    0.6361   -6.2634   33.4681 C   0  0  0  0  0  0  0  0  0  0  0  0
    7.4696   -5.3029   38.1049 H   0  0  0  0  0  0  0  0  0  0  0  0
    8.0174   -4.8887   36.6280 H   0  0  0  0  0  0  0  0  0  0  0  0
    6.9769   -3.0765   37.4805 H   0  0  0  0  0  0  0  0  0  0  0  0
    4.8367   -4.9951   37.9835 H   0  0  0  0  0  0  0  0  0  0  0  0
    4.3987   -2.4757   37.9529 H   0  0  0  0  0  0  0  0  0  0  0  0
    5.3175   -2.4897   39.4507 H   0  0  0  0  0  0  0  0  0  0  0  0
    2.7549   -2.5991   39.3598 H   0  0  0  0  0  0  0  0  0  0  0  0
    2.7463   -4.2184   38.9430 H   0  0  0  0  0  0  0  0  0  0  0  0
    4.7164   -5.1070   40.3574 H   0  0  0  0  0  0  0  0  0  0  0  0
    3.9786   -5.3209   41.8375 H   0  0  0  0  0  0  0  0  0  0  0  0
    4.1245   -7.2846   39.4107 H   0  0  0  0  0  0  0  0  0  0  0  0
    2.4594   -8.9792   38.7397 H   0  0  0  0  0  0  0  0  0  0  0  0
    0.0823   -8.7012   39.3473 H   0  0  0  0  0  0  0  0  0  0  0  0
   -0.6502   -6.7196   40.6516 H   0  0  0  0  0  0  0  0  0  0  0  0
    0.9948   -5.0188   41.3454 H   0  0  0  0  0  0  0  0  0  0  0  0
    2.4833   -3.7013   42.9469 H   0  0  0  0  0  0  0  0  0  0  0  0
    2.7147   -3.3078   45.1865 H   0  0  0  0  0  0  0  0  0  0  0  0
    3.2314   -1.7087   44.6234 H   0  0  0  0  0  0  0  0  0  0  0  0
    5.1397   -4.0872   45.0579 H   0  0  0  0  0  0  0  0  0  0  0  0
    5.6239   -2.4576   44.5844 H   0  0  0  0  0  0  0  0  0  0  0  0
    4.4983   -4.4939   47.5581 H   0  0  0  0  0  0  0  0  0  0  0  0
    5.5609   -0.5708   46.4093 H   0  0  0  0  0  0  0  0  0  0  0  0
    5.8647   -2.1847   33.1223 H   0  0  0  0  0  0  0  0  0  0  0  0
    2.8154   -4.7884   33.9007 H   0  0  0  0  0  0  0  0  0  0  0  0
    1.4599   -6.5868   36.7957 H   0  0  0  0  0  0  0  0  0  0  0  0
   -0.5834   -7.6850   36.7714 H   0  0  0  0  0  0  0  0  0  0  0  0
   -2.0688   -8.0674   32.3846 H   0  0  0  0  0  0  0  0  0  0  0  0
   -1.2129   -7.2698   30.1817 H   0  0  0  0  0  0  0  0  0  0  0  0
    0.7273   -5.7553   30.0867 H   0  0  0  0  0  0  0  0  0  0  0  0
    1.9457   -5.1646   32.1125 H   0  0  0  0  0  0  0  0  0  0  0  0
  1  2  1  0
  2  3  1  0
  3  4  1  0
  4  5  1  0
  5  6  1  0
  6  7  1  0
  7  8  1  0
  8  9  2  0
  9 10  1  0
 10 11  2  0
 11 12  1  0
 12 13  2  0
  6 14  1  0
 14 15  2  0
 14 16  1  0
 16 17  1  0
 17 18  1  0
 18 19  1  0
 19 20  1  0
 20 21  2  0
 21 22  1  0
 22 23  2  0
  2 24  1  0
 24 25  1  0
 25 26  1  0
 26 27  2  0
 27 28  1  0
 28 29  1  0
 29 30  2  0
 29 31  1  0
 31 32  1  0
 32 33  2  0
 33 34  1  0
 34 35  1  0
 35 36  2  0
 35 37  1  0
 37 38  2  0
 38 39  1  0
 39 40  2  0
 40 41  1  0
 41 42  2  0
 13  8  1  0
 23 19  1  0
 28 24  2  0
 42 32  1  0
 42 37  1  0
  1 43  1  0
  1 44  1  0
  2 45  1  0
  3 46  1  0
  4 47  1  0
  4 48  1  0
  5 49  1  0
  5 50  1  0
  7 51  1  0
  7 52  1  0
  9 53  1  0
 10 54  1  0
 11 55  1  0
 12 56  1  0
 13 57  1  0
 16 58  1  0
 17 59  1  0
 17 60  1  0
 18 61  1  0
 18 62  1  0
 20 63  1  0
 23 64  1  0
 26 65  1  0
 31 66  1  0
 33 67  1  0
 34 68  1  0
 38 69  1  0
 39 70  1  0
 40 71  1  0
 41 72  1  0
M  END
>  <Energy>  (801) 
8.4133716292521576

>  <compound_id>  (801) 
4369

>  <target_id>  (801) 
1

>  <reference_id>  (801) 
153

>  <inspiration_ids>  (801) 
[153, 168]

>  <energy_score>  (801) 
-14.507691362471938

>  <distance_score>  (801) 
2.1660978061442973

>  <path>  (801) 
/opt/xchem-fragalysis-2/maxwin/BulkDock/SCRATCH/505735/C4369-P153/C4369-P153.minimised.mol

>  <scratch_subdir>  (801) 
/opt/xchem-fragalysis-2/maxwin/BulkDock/SCRATCH/505735/C4369-P153

>  <fragmenstein_runtime>  (801) 
22.890480995178223

>  <fragmenstein_outcome>  (801) 
too moved

>  <fragmenstein_mode>  (801) 
expansion

>  <fragmenstein_error>  (801) 


$$$$
C4369-P168
     RDKit          3D

 72 76  0  0  0  0  0  0  0  0999 V2000
    3.8705   -4.4104   37.0888 N   0  0  0  0  0  0  0  0  0  0  0  0
    3.9713   -2.9848   36.9084 C   0  0  0  0  0  0  0  0  0  0  0  0
    2.6410   -2.4290   37.1189 N   0  0  0  0  0  0  0  0  0  0  0  0
    2.2936   -2.2792   38.5503 C   0  0  0  0  0  0  0  0  0  0  0  0
    1.3924   -3.4376   39.0677 C   0  0  0  0  0  0  0  0  0  0  0  0
    1.0017   -3.3814   40.5310 N   0  0  0  0  0  0  0  0  0  0  0  0
    2.2324   -4.2860   40.6727 C   0  0  0  0  0  0  0  0  0  0  0  0
    2.0125   -5.7829   40.4569 C   0  0  0  0  0  0  0  0  0  0  0  0
    3.1357   -6.6085   40.2811 C   0  0  0  0  0  0  0  0  0  0  0  0
    2.9820   -7.9769   40.0746 C   0  0  0  0  0  0  0  0  0  0  0  0
    1.7077   -8.5347   40.0601 C   0  0  0  0  0  0  0  0  0  0  0  0
    0.5852   -7.7328   40.2510 C   0  0  0  0  0  0  0  0  0  0  0  0
    0.7342   -6.3628   40.4574 C   0  0  0  0  0  0  0  0  0  0  0  0
    1.0758   -2.2851   41.4890 C   0  0  0  0  0  0  0  0  0  0  0  0
    1.5375   -1.2115   41.3790 O   0  0  0  0  0  0  0  0  0  0  0  0
    0.4284   -2.9195   42.6216 N   0  0  0  0  0  0  0  0  0  0  0  0
    0.2399   -2.4645   43.9777 C   0  0  0  0  0  0  0  0  0  0  0  0
    1.4567   -1.7445   44.5688 C   0  0  0  0  0  0  0  0  0  0  0  0
    2.6907   -2.4841   44.4353 N   0  0  0  0  0  0  0  0  0  0  0  0
    3.0097   -3.6719   45.0144 C   0  0  0  0  0  0  0  0  0  0  0  0
    4.1919   -4.0578   44.5902 N   0  0  0  0  0  0  0  0  0  0  0  0
    4.6645   -3.0921   43.7292 N   0  0  0  0  0  0  0  0  0  0  0  0
    3.7575   -2.1451   43.6602 C   0  0  0  0  0  0  0  0  0  0  0  0
    4.4014   -2.6937   35.5130 C   0  0  0  0  0  0  0  0  0  0  0  0
    5.3505   -1.7132   35.3661 O   0  0  0  0  0  0  0  0  0  0  0  0
    5.5902   -1.6761   34.0307 C   0  0  0  0  0  0  0  0  0  0  0  0
    4.8876   -2.5220   33.3196 N   0  0  0  0  0  0  0  0  0  0  0  0
    4.0944   -3.1849   34.2530 C   0  0  0  0  0  0  0  0  0  0  0  0
    3.1450   -4.2510   33.8518 C   0  0  0  0  0  0  0  0  0  0  0  0
    3.4417   -4.9000   32.8893 O   0  0  0  0  0  0  0  0  0  0  0  0
    1.9547   -4.2674   34.6684 N   0  0  0  0  0  0  0  0  0  0  0  0
    0.8517   -5.0891   34.6412 C   0  0  0  0  0  0  0  0  0  0  0  0
    0.1822   -5.2481   35.7951 C   0  0  0  0  0  0  0  0  0  0  0  0
   -0.8489   -6.1290   35.9525 N   0  0  0  0  0  0  0  0  0  0  0  0
   -1.3228   -6.9474   34.9604 C   0  0  0  0  0  0  0  0  0  0  0  0
   -2.2809   -7.6891   35.1544 O   0  0  0  0  0  0  0  0  0  0  0  0
   -0.6548   -6.8167   33.6375 C   0  0  0  0  0  0  0  0  0  0  0  0
   -1.1034   -7.6112   32.5725 C   0  0  0  0  0  0  0  0  0  0  0  0
   -0.5872   -7.4106   31.2973 C   0  0  0  0  0  0  0  0  0  0  0  0
    0.3043   -6.3705   31.0740 C   0  0  0  0  0  0  0  0  0  0  0  0
    0.7492   -5.5853   32.1409 C   0  0  0  0  0  0  0  0  0  0  0  0
    0.3496   -5.8405   33.4594 C   0  0  0  0  0  0  0  0  0  0  0  0
    3.7300   -4.6187   38.0714 H   0  0  0  0  0  0  0  0  0  0  0  0
    4.7711   -4.8359   36.8647 H   0  0  0  0  0  0  0  0  0  0  0  0
    4.7071   -2.5589   37.6012 H   0  0  0  0  0  0  0  0  0  0  0  0
    2.6732   -1.4742   36.7471 H   0  0  0  0  0  0  0  0  0  0  0  0
    1.7146   -1.3511   38.6458 H   0  0  0  0  0  0  0  0  0  0  0  0
    3.1864   -2.1228   39.1653 H   0  0  0  0  0  0  0  0  0  0  0  0
    0.4158   -3.2181   38.6044 H   0  0  0  0  0  0  0  0  0  0  0  0
    1.6053   -4.4120   38.6103 H   0  0  0  0  0  0  0  0  0  0  0  0
    3.1727   -3.9100   40.2401 H   0  0  0  0  0  0  0  0  0  0  0  0
    2.4733   -4.2472   41.7471 H   0  0  0  0  0  0  0  0  0  0  0  0
    4.1405   -6.1929   40.3184 H   0  0  0  0  0  0  0  0  0  0  0  0
    3.8519   -8.6153   39.9454 H   0  0  0  0  0  0  0  0  0  0  0  0
    1.5855   -9.6064   39.9220 H   0  0  0  0  0  0  0  0  0  0  0  0
   -0.4005   -8.1905   40.2500 H   0  0  0  0  0  0  0  0  0  0  0  0
   -0.1545   -5.7555   40.6089 H   0  0  0  0  0  0  0  0  0  0  0  0
    0.0754   -3.8263   42.3367 H   0  0  0  0  0  0  0  0  0  0  0  0
   -0.0106   -3.3475   44.5752 H   0  0  0  0  0  0  0  0  0  0  0  0
   -0.6264   -1.7954   43.9840 H   0  0  0  0  0  0  0  0  0  0  0  0
    1.5968   -0.7728   44.0815 H   0  0  0  0  0  0  0  0  0  0  0  0
    1.3036   -1.5550   45.6372 H   0  0  0  0  0  0  0  0  0  0  0  0
    2.3733   -4.2095   45.7027 H   0  0  0  0  0  0  0  0  0  0  0  0
    3.8158   -1.2414   43.0689 H   0  0  0  0  0  0  0  0  0  0  0  0
    6.3277   -0.9642   33.6865 H   0  0  0  0  0  0  0  0  0  0  0  0
    2.0840   -3.6349   35.4575 H   0  0  0  0  0  0  0  0  0  0  0  0
    0.4623   -4.7196   36.6963 H   0  0  0  0  0  0  0  0  0  0  0  0
   -1.3108   -6.2099   36.8505 H   0  0  0  0  0  0  0  0  0  0  0  0
   -1.8547   -8.3783   32.7426 H   0  0  0  0  0  0  0  0  0  0  0  0
   -0.8781   -8.0474   30.4708 H   0  0  0  0  0  0  0  0  0  0  0  0
    0.6686   -6.1681   30.0694 H   0  0  0  0  0  0  0  0  0  0  0  0
    1.4104   -4.7580   31.9034 H   0  0  0  0  0  0  0  0  0  0  0  0
  1  2  1  0
  2  3  1  0
  3  4  1  0
  4  5  1  0
  5  6  1  0
  6  7  1  0
  7  8  1  0
  8  9  2  0
  9 10  1  0
 10 11  2  0
 11 12  1  0
 12 13  2  0
  6 14  1  0
 14 15  2  0
 14 16  1  0
 16 17  1  0
 17 18  1  0
 18 19  1  0
 19 20  1  0
 20 21  2  0
 21 22  1  0
 22 23  2  0
  2 24  1  0
 24 25  1  0
 25 26  1  0
 26 27  2  0
 27 28  1  0
 28 29  1  0
 29 30  2  0
 29 31  1  0
 31 32  1  0
 32 33  2  0
 33 34  1  0
 34 35  1  0
 35 36  2  0
 35 37  1  0
 37 38  2  0
 38 39  1  0
 39 40  2  0
 40 41  1  0
 41 42  2  0
 13  8  1  0
 23 19  1  0
 28 24  2  0
 42 32  1  0
 42 37  1  0
  1 43  1  0
  1 44  1  0
  2 45  1  0
  3 46  1  0
  4 47  1  0
  4 48  1  0
  5 49  1  0
  5 50  1  0
  7 51  1  0
  7 52  1  0
  9 53  1  0
 10 54  1  0
 11 55  1  0
 12 56  1  0
 13 57  1  0
 16 58  1  0
 17 59  1  0
 17 60  1  0
 18 61  1  0
 18 62  1  0
 20 63  1  0
 23 64  1  0
 26 65  1  0
 31 66  1  0
 33 67  1  0
 34 68  1  0
 38 69  1  0
 39 70  1  0
 40 71  1  0
 41 72  1  0
M  END
>  <Energy>  (802) 
26.497362714619065

>  <compound_id>  (802) 
4369

>  <target_id>  (802) 
1

>  <reference_id>  (802) 
168

>  <inspiration_ids>  (802) 
[153, 168]

>  <energy_score>  (802) 
3.5762997228922444

>  <distance_score>  (802) 
1.9882043381330121

>  <path>  (802) 
/opt/xchem-fragalysis-2/maxwin/BulkDock/SCRATCH/505735/C4369-P168/C4369-P168.minimised.mol

>  <scratch_subdir>  (802) 
/opt/xchem-fragalysis-2/maxwin/BulkDock/SCRATCH/505735/C4369-P168

>  <fragmenstein_runtime>  (802) 
19.10447096824646

>  <fragmenstein_outcome>  (802) 
too moved

>  <fragmenstein_mode>  (802) 
expansion

>  <fragmenstein_error>  (802) 


$$$$
C4369-P153
     RDKit          3D

 72 76  0  0  0  0  0  0  0  0999 V2000
    1.4605   -3.9601   32.6180 N   0  0  0  0  0  0  0  0  0  0  0  0
    1.4825   -5.3903   32.8178 C   0  0  0  0  0  0  0  0  0  0  0  0
    1.1213   -5.5456   34.1998 N   0  0  0  0  0  0  0  0  0  0  0  0
    1.1928   -6.8950   34.7651 C   0  0  0  0  0  0  0  0  0  0  0  0
    0.8010   -7.0476   36.3005 C   0  0  0  0  0  0  0  0  0  0  0  0
   -0.5908   -6.5217   36.7344 N   0  0  0  0  0  0  0  0  0  0  0  0
    0.2530   -5.5220   37.4777 C   0  0  0  0  0  0  0  0  0  0  0  0
    0.7944   -4.2579   36.8538 C   0  0  0  0  0  0  0  0  0  0  0  0
    2.1727   -3.9992   36.8689 C   0  0  0  0  0  0  0  0  0  0  0  0
    2.6729   -2.8126   36.3335 C   0  0  0  0  0  0  0  0  0  0  0  0
    1.8036   -1.8704   35.7863 C   0  0  0  0  0  0  0  0  0  0  0  0
    0.4323   -2.1071   35.7795 C   0  0  0  0  0  0  0  0  0  0  0  0
   -0.0698   -3.2883   36.3211 C   0  0  0  0  0  0  0  0  0  0  0  0
   -1.4418   -6.3597   35.5745 C   0  0  0  0  0  0  0  0  0  0  0  0
   -1.6073   -5.4306   34.8834 O   0  0  0  0  0  0  0  0  0  0  0  0
   -2.0980   -7.6548   35.5830 N   0  0  0  0  0  0  0  0  0  0  0  0
   -3.0705   -8.2184   34.6973 C   0  0  0  0  0  0  0  0  0  0  0  0
   -4.7858   -8.0236   34.6930 C   0  0  0  0  0  0  0  0  0  0  0  0
   -6.3597   -6.7979   34.4027 N   0  0  0  0  0  0  0  0  0  0  0  0
   -7.3362   -7.0092   33.3149 C   0  0  0  0  0  0  0  0  0  0  0  0
   -8.5537   -7.1547   33.7384 N   0  0  0  0  0  0  0  0  0  0  0  0
   -8.5250   -6.5511   34.9183 N   0  0  0  0  0  0  0  0  0  0  0  0
   -7.3002   -6.2413   35.1960 C   0  0  0  0  0  0  0  0  0  0  0  0
    0.5796   -6.0299   31.8406 C   0  0  0  0  0  0  0  0  0  0  0  0
   -0.5536   -6.6201   32.3256 O   0  0  0  0  0  0  0  0  0  0  0  0
   -1.0589   -7.2913   31.2740 C   0  0  0  0  0  0  0  0  0  0  0  0
   -0.4109   -7.1355   30.1477 N   0  0  0  0  0  0  0  0  0  0  0  0
    0.6384   -6.2768   30.4807 C   0  0  0  0  0  0  0  0  0  0  0  0
    1.7196   -5.9392   29.5215 C   0  0  0  0  0  0  0  0  0  0  0  0
    2.0149   -6.8037   28.7441 O   0  0  0  0  0  0  0  0  0  0  0  0
    2.2554   -4.6208   29.7039 N   0  0  0  0  0  0  0  0  0  0  0  0
    3.2000   -3.9232   28.9883 C   0  0  0  0  0  0  0  0  0  0  0  0
    3.1338   -2.5814   28.9902 C   0  0  0  0  0  0  0  0  0  0  0  0
    3.8710   -1.8044   28.1388 N   0  0  0  0  0  0  0  0  0  0  0  0
    4.6946   -2.3006   27.1566 C   0  0  0  0  0  0  0  0  0  0  0  0
    5.2350   -1.5652   26.3411 O   0  0  0  0  0  0  0  0  0  0  0  0
    4.9039   -3.7688   27.1641 C   0  0  0  0  0  0  0  0  0  0  0  0
    5.8444   -4.3218   26.2881 C   0  0  0  0  0  0  0  0  0  0  0  0
    6.1712   -5.6693   26.3713 C   0  0  0  0  0  0  0  0  0  0  0  0
    5.5996   -6.4458   27.3677 C   0  0  0  0  0  0  0  0  0  0  0  0
    4.6616   -5.8836   28.2414 C   0  0  0  0  0  0  0  0  0  0  0  0
    4.2325   -4.5554   28.1163 C   0  0  0  0  0  0  0  0  0  0  0  0
    2.0412   -3.5858   33.3753 H   0  0  0  0  0  0  0  0  0  0  0  0
    0.5303   -3.6400   32.9010 H   0  0  0  0  0  0  0  0  0  0  0  0
    2.5050   -5.7383   32.6679 H   0  0  0  0  0  0  0  0  0  0  0  0
    0.1631   -5.1948   34.3182 H   0  0  0  0  0  0  0  0  0  0  0  0
    0.5594   -7.5845   34.2015 H   0  0  0  0  0  0  0  0  0  0  0  0
    2.2209   -7.2629   34.6706 H   0  0  0  0  0  0  0  0  0  0  0  0
    1.7025   -6.9171   36.9237 H   0  0  0  0  0  0  0  0  0  0  0  0
    0.6471   -8.1307   36.4142 H   0  0  0  0  0  0  0  0  0  0  0  0
    0.8869   -5.9501   38.2763 H   0  0  0  0  0  0  0  0  0  0  0  0
   -0.5314   -5.1036   38.1348 H   0  0  0  0  0  0  0  0  0  0  0  0
    2.8666   -4.7145   37.3027 H   0  0  0  0  0  0  0  0  0  0  0  0
    3.7422   -2.6170   36.3500 H   0  0  0  0  0  0  0  0  0  0  0  0
    2.1956   -0.9430   35.3761 H   0  0  0  0  0  0  0  0  0  0  0  0
   -0.2499   -1.3685   35.3665 H   0  0  0  0  0  0  0  0  0  0  0  0
   -1.1472   -3.4477   36.3250 H   0  0  0  0  0  0  0  0  0  0  0  0
   -1.6431   -8.2551   36.2703 H   0  0  0  0  0  0  0  0  0  0  0  0
   -2.6037   -8.2937   33.7062 H   0  0  0  0  0  0  0  0  0  0  0  0
   -3.0848   -9.2498   35.0477 H   0  0  0  0  0  0  0  0  0  0  0  0
   -4.9824   -8.6650   33.7975 H   0  0  0  0  0  0  0  0  0  0  0  0
   -5.0006   -8.4582   35.7220 H   0  0  0  0  0  0  0  0  0  0  0  0
   -7.0046   -7.0082   32.3006 H   0  0  0  0  0  0  0  0  0  0  0  0
   -7.1212   -5.2781   35.5505 H   0  0  0  0  0  0  0  0  0  0  0  0
   -1.9378   -7.8802   31.4791 H   0  0  0  0  0  0  0  0  0  0  0  0
    1.7002   -4.1306   30.4082 H   0  0  0  0  0  0  0  0  0  0  0  0
    2.4210   -2.0343   29.6011 H   0  0  0  0  0  0  0  0  0  0  0  0
    3.7319   -0.8000   28.1150 H   0  0  0  0  0  0  0  0  0  0  0  0
    6.3516   -3.6996   25.5595 H   0  0  0  0  0  0  0  0  0  0  0  0
    6.9022   -6.0926   25.6852 H   0  0  0  0  0  0  0  0  0  0  0  0
    5.8964   -7.4862   27.4718 H   0  0  0  0  0  0  0  0  0  0  0  0
    4.2953   -6.5094   29.0410 H   0  0  0  0  0  0  0  0  0  0  0  0
  1  2  1  0
  2  3  1  0
  3  4  1  0
  4  5  1  0
  5  6  1  0
  6  7  1  0
  7  8  1  0
  8  9  2  0
  9 10  1  0
 10 11  2  0
 11 12  1  0
 12 13  2  0
  6 14  1  0
 14 15  2  0
 14 16  1  0
 16 17  1  0
 17 18  1  0
 18 19  1  0
 19 20  1  0
 20 21  2  0
 21 22  1  0
 22 23  2  0
  2 24  1  0
 24 25  1  0
 25 26  1  0
 26 27  2  0
 27 28  1  0
 28 29  1  0
 29 30  2  0
 29 31  1  0
 31 32  1  0
 32 33  2  0
 33 34  1  0
 34 35  1  0
 35 36  2  0
 35 37  1  0
 37 38  2  0
 38 39  1  0
 39 40  2  0
 40 41  1  0
 41 42  2  0
 13  8  1  0
 23 19  1  0
 28 24  2  0
 42 32  1  0
 42 37  1  0
  1 43  1  0
  1 44  1  0
  2 45  1  0
  3 46  1  0
  4 47  1  0
  4 48  1  0
  5 49  1  0
  5 50  1  0
  7 51  1  0
  7 52  1  0
  9 53  1  0
 10 54  1  0
 11 55  1  0
 12 56  1  0
 13 57  1  0
 16 58  1  0
 17 59  1  0
 17 60  1  0
 18 61  1  0
 18 62  1  0
 20 63  1  0
 23 64  1  0
 26 65  1  0
 31 66  1  0
 33 67  1  0
 34 68  1  0
 38 69  1  0
 39 70  1  0
 40 71  1  0
 41 72  1  0
M  END
>  <Energy>  (803) 
249.42839623183471

>  <compound_id>  (803) 
4369

>  <target_id>  (803) 
1

>  <reference_id>  (803) 
153

>  <inspiration_ids>  (803) 
[153, 175]

>  <energy_score>  (803) 
219.31782806397348

>  <distance_score>  (803) 
3.4002115185470796

>  <path>  (803) 
/opt/xchem-fragalysis-2/maxwin/BulkDock/SCRATCH/505735/C4369-P153/C4369-P153.minimised.mol

>  <scratch_subdir>  (803) 
/opt/xchem-fragalysis-2/maxwin/BulkDock/SCRATCH/505735/C4369-P153

>  <fragmenstein_runtime>  (803) 
36.22254419326782

>  <fragmenstein_outcome>  (803) 
too moved

>  <fragmenstein_mode>  (803) 
expansion

>  <fragmenstein_error>  (803) 


$$$$
C4369-P175
     RDKit          3D

 72 76  0  0  0  0  0  0  0  0999 V2000
    1.8627   -6.0541   32.3338 N   0  0  0  0  0  0  0  0  0  0  0  0
    0.8229   -6.3604   31.3760 C   0  0  0  0  0  0  0  0  0  0  0  0
   -0.3569   -6.6956   32.1178 N   0  0  0  0  0  0  0  0  0  0  0  0
   -0.3607   -7.9185   32.9431 C   0  0  0  0  0  0  0  0  0  0  0  0
    0.0103   -7.8975   34.5505 C   0  0  0  0  0  0  0  0  0  0  0  0
   -0.8778   -6.9445   35.2808 N   0  0  0  0  0  0  0  0  0  0  0  0
    0.3956   -6.1860   35.4036 C   0  0  0  0  0  0  0  0  0  0  0  0
    0.0911   -4.9534   36.2567 C   0  0  0  0  0  0  0  0  0  0  0  0
    0.3213   -4.9718   37.6402 C   0  0  0  0  0  0  0  0  0  0  0  0
    0.0086   -3.8590   38.4195 C   0  0  0  0  0  0  0  0  0  0  0  0
   -0.5471   -2.7264   37.8274 C   0  0  0  0  0  0  0  0  0  0  0  0
   -0.7943   -2.7044   36.4565 C   0  0  0  0  0  0  0  0  0  0  0  0
   -0.4784   -3.8126   35.6736 C   0  0  0  0  0  0  0  0  0  0  0  0
   -2.0398   -6.6887   34.5166 C   0  0  0  0  0  0  0  0  0  0  0  0
   -2.2303   -5.8501   33.7233 O   0  0  0  0  0  0  0  0  0  0  0  0
   -3.0207   -7.7572   35.1039 N   0  0  0  0  0  0  0  0  0  0  0  0
   -4.7250   -7.9820   34.8678 C   0  0  0  0  0  0  0  0  0  0  0  0
   -6.5529   -7.0114   34.3664 C   0  0  0  0  0  0  0  0  0  0  0  0
   -7.9473   -6.9362   34.7420 N   0  0  0  0  0  0  0  0  0  0  0  0
   -9.0243   -7.1708   33.8844 C   0  0  0  0  0  0  0  0  0  0  0  0
  -10.1879   -6.8677   34.5266 N   0  0  0  0  0  0  0  0  0  0  0  0
   -9.8569   -6.2207   35.7213 N   0  0  0  0  0  0  0  0  0  0  0  0
   -8.5248   -6.0453   35.5887 C   0  0  0  0  0  0  0  0  0  0  0  0
    0.6492   -5.1826   30.4665 C   0  0  0  0  0  0  0  0  0  0  0  0
   -0.3700   -4.2916   30.7044 O   0  0  0  0  0  0  0  0  0  0  0  0
   -0.1878   -3.3181   29.7689 C   0  0  0  0  0  0  0  0  0  0  0  0
    0.8773   -3.4631   29.0118 N   0  0  0  0  0  0  0  0  0  0  0  0
    1.3943   -4.6812   29.4116 C   0  0  0  0  0  0  0  0  0  0  0  0
    2.5890   -5.2721   28.7964 C   0  0  0  0  0  0  0  0  0  0  0  0
    2.8005   -6.4463   28.9093 O   0  0  0  0  0  0  0  0  0  0  0  0
    3.3692   -4.2326   28.1866 N   0  0  0  0  0  0  0  0  0  0  0  0
    4.6233   -4.2554   27.6345 C   0  0  0  0  0  0  0  0  0  0  0  0
    5.3991   -3.1655   27.7690 C   0  0  0  0  0  0  0  0  0  0  0  0
    6.7522   -3.2026   27.5536 N   0  0  0  0  0  0  0  0  0  0  0  0
    7.4490   -4.3573   27.2705 C   0  0  0  0  0  0  0  0  0  0  0  0
    8.6661   -4.4197   27.3888 O   0  0  0  0  0  0  0  0  0  0  0  0
    6.6235   -5.5130   26.8410 C   0  0  0  0  0  0  0  0  0  0  0  0
    7.2462   -6.5990   26.2185 C   0  0  0  0  0  0  0  0  0  0  0  0
    6.4665   -7.6180   25.6834 C   0  0  0  0  0  0  0  0  0  0  0  0
    5.0767   -7.5435   25.7581 C   0  0  0  0  0  0  0  0  0  0  0  0
    4.4611   -6.4707   26.4101 C   0  0  0  0  0  0  0  0  0  0  0  0
    5.2244   -5.4492   26.9921 C   0  0  0  0  0  0  0  0  0  0  0  0
    1.6082   -5.1637   32.7626 H   0  0  0  0  0  0  0  0  0  0  0  0
    2.7167   -5.8470   31.8214 H   0  0  0  0  0  0  0  0  0  0  0  0
    1.0910   -7.2179   30.7564 H   0  0  0  0  0  0  0  0  0  0  0  0
   -0.7561   -5.9027   32.6236 H   0  0  0  0  0  0  0  0  0  0  0  0
   -1.3696   -8.3411   32.8522 H   0  0  0  0  0  0  0  0  0  0  0  0
    0.2415   -8.6328   32.4189 H   0  0  0  0  0  0  0  0  0  0  0  0
    1.1142   -7.9230   34.6236 H   0  0  0  0  0  0  0  0  0  0  0  0
   -0.2758   -8.8185   35.0307 H   0  0  0  0  0  0  0  0  0  0  0  0
    0.7607   -5.7716   34.4665 H   0  0  0  0  0  0  0  0  0  0  0  0
    1.1785   -6.6993   35.9897 H   0  0  0  0  0  0  0  0  0  0  0  0
    0.7259   -5.8592   38.1210 H   0  0  0  0  0  0  0  0  0  0  0  0
    0.1801   -3.8816   39.4924 H   0  0  0  0  0  0  0  0  0  0  0  0
   -0.8045   -1.8660   38.4392 H   0  0  0  0  0  0  0  0  0  0  0  0
   -1.2534   -1.8325   35.9987 H   0  0  0  0  0  0  0  0  0  0  0  0
   -0.7171   -3.7957   34.6123 H   0  0  0  0  0  0  0  0  0  0  0  0
   -2.5043   -8.3948   35.7175 H   0  0  0  0  0  0  0  0  0  0  0  0
   -4.6054   -8.7927   34.1291 H   0  0  0  0  0  0  0  0  0  0  0  0
   -4.8902   -8.4736   35.8627 H   0  0  0  0  0  0  0  0  0  0  0  0
   -6.8214   -7.4564   33.3704 H   0  0  0  0  0  0  0  0  0  0  0  0
   -6.4622   -5.9308   34.3208 H   0  0  0  0  0  0  0  0  0  0  0  0
   -8.9796   -7.5377   32.8943 H   0  0  0  0  0  0  0  0  0  0  0  0
   -8.0413   -5.1392   35.8564 H   0  0  0  0  0  0  0  0  0  0  0  0
   -0.9199   -2.5215   29.7472 H   0  0  0  0  0  0  0  0  0  0  0  0
    2.9135   -3.3342   28.3531 H   0  0  0  0  0  0  0  0  0  0  0  0
    5.0345   -2.2362   28.1962 H   0  0  0  0  0  0  0  0  0  0  0  0
    7.3335   -2.4091   27.7977 H   0  0  0  0  0  0  0  0  0  0  0  0
    8.3274   -6.6162   26.1023 H   0  0  0  0  0  0  0  0  0  0  0  0
    6.9341   -8.4459   25.1555 H   0  0  0  0  0  0  0  0  0  0  0  0
    4.4794   -8.3094   25.2657 H   0  0  0  0  0  0  0  0  0  0  0  0
    3.3783   -6.4220   26.4079 H   0  0  0  0  0  0  0  0  0  0  0  0
  1  2  1  0
  2  3  1  0
  3  4  1  0
  4  5  1  0
  5  6  1  0
  6  7  1  0
  7  8  1  0
  8  9  2  0
  9 10  1  0
 10 11  2  0
 11 12  1  0
 12 13  2  0
  6 14  1  0
 14 15  2  0
 14 16  1  0
 16 17  1  0
 17 18  1  0
 18 19  1  0
 19 20  1  0
 20 21  2  0
 21 22  1  0
 22 23  2  0
  2 24  1  0
 24 25  1  0
 25 26  1  0
 26 27  2  0
 27 28  1  0
 28 29  1  0
 29 30  2  0
 29 31  1  0
 31 32  1  0
 32 33  2  0
 33 34  1  0
 34 35  1  0
 35 36  2  0
 35 37  1  0
 37 38  2  0
 38 39  1  0
 39 40  2  0
 40 41  1  0
 41 42  2  0
 13  8  1  0
 23 19  1  0
 28 24  2  0
 42 32  1  0
 42 37  1  0
  1 43  1  0
  1 44  1  0
  2 45  1  0
  3 46  1  0
  4 47  1  0
  4 48  1  0
  5 49  1  0
  5 50  1  0
  7 51  1  0
  7 52  1  0
  9 53  1  0
 10 54  1  0
 11 55  1  0
 12 56  1  0
 13 57  1  0
 16 58  1  0
 17 59  1  0
 17 60  1  0
 18 61  1  0
 18 62  1  0
 20 63  1  0
 23 64  1  0
 26 65  1  0
 31 66  1  0
 33 67  1  0
 34 68  1  0
 38 69  1  0
 39 70  1  0
 40 71  1  0
 41 72  1  0
M  END
>  <Energy>  (804) 
232.56445531181592

>  <compound_id>  (804) 
4369

>  <target_id>  (804) 
1

>  <reference_id>  (804) 
175

>  <inspiration_ids>  (804) 
[153, 175]

>  <energy_score>  (804) 
202.4538871439462

>  <distance_score>  (804) 
2.1635422166594696

>  <path>  (804) 
/opt/xchem-fragalysis-2/maxwin/BulkDock/SCRATCH/505735/C4369-P175/C4369-P175.minimised.mol

>  <scratch_subdir>  (804) 
/opt/xchem-fragalysis-2/maxwin/BulkDock/SCRATCH/505735/C4369-P175

>  <fragmenstein_runtime>  (804) 
70.0645124912262

>  <fragmenstein_outcome>  (804) 
too moved

>  <fragmenstein_mode>  (804) 
expansion

>  <fragmenstein_error>  (804) 


$$$$
C4370-P153
     RDKit          3D

 67 71  0  0  0  0  0  0  0  0999 V2000
    3.2286   -8.6354   42.3166 C   0  0  0  0  0  0  0  0  0  0  0  0
    2.0696   -9.1433   41.5015 N   0  0  0  0  0  0  0  0  0  0  0  0
    3.0866   -9.0236   40.3826 C   0  0  0  0  0  0  0  0  0  0  0  0
    2.9198   -7.7358   39.5961 C   0  0  0  0  0  0  0  0  0  0  0  0
    4.0166   -6.9607   39.2051 C   0  0  0  0  0  0  0  0  0  0  0  0
    3.8236   -5.7591   38.5187 C   0  0  0  0  0  0  0  0  0  0  0  0
    2.5353   -5.3179   38.2239 C   0  0  0  0  0  0  0  0  0  0  0  0
    1.4308   -6.0903   38.5959 C   0  0  0  0  0  0  0  0  0  0  0  0
    0.0304   -5.6421   38.2916 C   0  0  0  0  0  0  0  0  0  0  0  0
   -0.5794   -6.3797   37.1912 N   0  0  0  0  0  0  0  0  0  0  0  0
   -0.0037   -6.1150   35.8946 C   0  0  0  0  0  0  0  0  0  0  0  0
   -0.7260   -7.0690   35.0727 N   0  0  0  0  0  0  0  0  0  0  0  0
   -0.2541   -4.7357   35.3876 C   0  0  0  0  0  0  0  0  0  0  0  0
   -1.2150   -3.9730   36.0144 O   0  0  0  0  0  0  0  0  0  0  0  0
   -1.2792   -2.8340   35.2778 C   0  0  0  0  0  0  0  0  0  0  0  0
   -0.4519   -2.7778   34.2604 N   0  0  0  0  0  0  0  0  0  0  0  0
    0.2201   -3.9946   34.3234 C   0  0  0  0  0  0  0  0  0  0  0  0
    1.1902   -4.3950   33.3021 C   0  0  0  0  0  0  0  0  0  0  0  0
    1.9451   -5.3062   33.4829 O   0  0  0  0  0  0  0  0  0  0  0  0
    0.9724   -3.5721   32.1461 N   0  0  0  0  0  0  0  0  0  0  0  0
    1.4934   -3.6404   30.8868 C   0  0  0  0  0  0  0  0  0  0  0  0
    0.6492   -3.4544   29.8602 C   0  0  0  0  0  0  0  0  0  0  0  0
    1.0076   -3.7135   28.5684 N   0  0  0  0  0  0  0  0  0  0  0  0
    2.2393   -4.2022   28.1950 C   0  0  0  0  0  0  0  0  0  0  0  0
    2.4706   -4.6328   27.0704 O   0  0  0  0  0  0  0  0  0  0  0  0
    3.2816   -4.1924   29.2394 C   0  0  0  0  0  0  0  0  0  0  0  0
    4.6164   -4.3869   28.8592 C   0  0  0  0  0  0  0  0  0  0  0  0
    5.6196   -4.2905   29.8159 C   0  0  0  0  0  0  0  0  0  0  0  0
    5.2857   -4.0009   31.1385 C   0  0  0  0  0  0  0  0  0  0  0  0
    3.9468   -3.8155   31.5119 C   0  0  0  0  0  0  0  0  0  0  0  0
    2.9135   -3.9257   30.5729 C   0  0  0  0  0  0  0  0  0  0  0  0
    1.6333   -7.3072   39.2518 C   0  0  0  0  0  0  0  0  0  0  0  0
    1.4998  -10.2925   42.1218 C   0  0  0  0  0  0  0  0  0  0  0  0
    1.7462  -11.4609   41.9785 O   0  0  0  0  0  0  0  0  0  0  0  0
    0.3439   -9.8351   43.0130 C   0  0  0  0  0  0  0  0  0  0  0  0
    0.2703  -10.5828   44.2460 N   0  0  0  0  0  0  0  0  0  0  0  0
    0.8994  -10.2893   45.4155 C   0  0  0  0  0  0  0  0  0  0  0  0
    0.5851  -11.1917   46.3166 N   0  0  0  0  0  0  0  0  0  0  0  0
   -0.2892  -12.0797   45.7293 N   0  0  0  0  0  0  0  0  0  0  0  0
   -0.4769  -11.6929   44.4867 C   0  0  0  0  0  0  0  0  0  0  0  0
    3.6209   -7.6465   42.0401 H   0  0  0  0  0  0  0  0  0  0  0  0
    4.0031   -9.3981   42.4976 H   0  0  0  0  0  0  0  0  0  0  0  0
    2.8173   -8.4639   43.3228 H   0  0  0  0  0  0  0  0  0  0  0  0
    4.1325   -9.3459   40.5353 H   0  0  0  0  0  0  0  0  0  0  0  0
    2.7499   -9.8055   39.6832 H   0  0  0  0  0  0  0  0  0  0  0  0
    5.0299   -7.2813   39.4353 H   0  0  0  0  0  0  0  0  0  0  0  0
    4.6820   -5.1630   38.2188 H   0  0  0  0  0  0  0  0  0  0  0  0
    2.4006   -4.3755   37.6990 H   0  0  0  0  0  0  0  0  0  0  0  0
    0.0034   -4.5578   38.1342 H   0  0  0  0  0  0  0  0  0  0  0  0
   -0.5790   -5.8071   39.1899 H   0  0  0  0  0  0  0  0  0  0  0  0
   -1.5574   -6.1165   37.1251 H   0  0  0  0  0  0  0  0  0  0  0  0
    1.0633   -6.3576   35.8706 H   0  0  0  0  0  0  0  0  0  0  0  0
   -0.7445   -7.9330   35.6301 H   0  0  0  0  0  0  0  0  0  0  0  0
   -0.1206   -7.3047   34.2899 H   0  0  0  0  0  0  0  0  0  0  0  0
   -2.0066   -2.0980   35.5901 H   0  0  0  0  0  0  0  0  0  0  0  0
    0.1863   -2.9450   32.3277 H   0  0  0  0  0  0  0  0  0  0  0  0
   -0.3986   -3.2000   29.9988 H   0  0  0  0  0  0  0  0  0  0  0  0
    0.2837   -3.6684   27.8595 H   0  0  0  0  0  0  0  0  0  0  0  0
    4.8766   -4.5835   27.8208 H   0  0  0  0  0  0  0  0  0  0  0  0
    6.6603   -4.4274   29.5307 H   0  0  0  0  0  0  0  0  0  0  0  0
    6.0707   -3.9129   31.8867 H   0  0  0  0  0  0  0  0  0  0  0  0
    3.7353   -3.5649   32.5481 H   0  0  0  0  0  0  0  0  0  0  0  0
    0.7704   -7.9241   39.5039 H   0  0  0  0  0  0  0  0  0  0  0  0
    0.4221   -8.7740   43.2727 H   0  0  0  0  0  0  0  0  0  0  0  0
   -0.5939   -9.9794   42.4650 H   0  0  0  0  0  0  0  0  0  0  0  0
    1.5560   -9.4440   45.5628 H   0  0  0  0  0  0  0  0  0  0  0  0
   -1.1079  -12.1761   43.7523 H   0  0  0  0  0  0  0  0  0  0  0  0
  1  2  1  0
  2  3  1  0
  3  4  1  0
  4  5  2  0
  5  6  1  0
  6  7  2  0
  7  8  1  0
  8  9  1  0
  9 10  1  0
 10 11  1  0
 11 12  1  0
 11 13  1  0
 13 14  1  0
 14 15  1  0
 15 16  2  0
 16 17  1  0
 17 18  1  0
 18 19  2  0
 18 20  1  0
 20 21  1  0
 21 22  2  0
 22 23  1  0
 23 24  1  0
 24 25  2  0
 24 26  1  0
 26 27  2  0
 27 28  1  0
 28 29  2  0
 29 30  1  0
 30 31  2  0
  8 32  2  0
  2 33  1  0
 33 34  2  0
 33 35  1  0
 35 36  1  0
 36 37  1  0
 37 38  2  0
 38 39  1  0
 39 40  2  0
 32  4  1  0
 40 36  1  0
 17 13  2  0
 31 21  1  0
 31 26  1  0
  1 41  1  0
  1 42  1  0
  1 43  1  0
  3 44  1  0
  3 45  1  0
  5 46  1  0
  6 47  1  0
  7 48  1  0
  9 49  1  0
  9 50  1  0
 10 51  1  0
 11 52  1  0
 12 53  1  0
 12 54  1  0
 15 55  1  0
 20 56  1  0
 22 57  1  0
 23 58  1  0
 27 59  1  0
 28 60  1  0
 29 61  1  0
 30 62  1  0
 32 63  1  0
 35 64  1  0
 35 65  1  0
 37 66  1  0
 40 67  1  0
M  END
>  <Energy>  (805) 
62.251182862090964

>  <compound_id>  (805) 
4370

>  <target_id>  (805) 
1

>  <reference_id>  (805) 
153

>  <inspiration_ids>  (805) 
[153, 177]

>  <energy_score>  (805) 
-19.84243682256752

>  <distance_score>  (805) 
3.207018378025184

>  <path>  (805) 
/opt/xchem-fragalysis-2/maxwin/BulkDock/SCRATCH/505735/C4370-P153/C4370-P153.minimised.mol

>  <scratch_subdir>  (805) 
/opt/xchem-fragalysis-2/maxwin/BulkDock/SCRATCH/505735/C4370-P153

>  <fragmenstein_runtime>  (805) 
46.86487436294556

>  <fragmenstein_outcome>  (805) 
too moved

>  <fragmenstein_mode>  (805) 
expansion

>  <fragmenstein_error>  (805) 


$$$$
C4370-P177
     RDKit          3D

 67 71  0  0  0  0  0  0  0  0999 V2000
    0.1615   -8.8570   40.7618 C   0  0  0  0  0  0  0  0  0  0  0  0
    0.5638   -7.6280   41.5129 N   0  0  0  0  0  0  0  0  0  0  0  0
    1.7221   -7.6623   40.5108 C   0  0  0  0  0  0  0  0  0  0  0  0
    1.6531   -6.6370   39.3872 C   0  0  0  0  0  0  0  0  0  0  0  0
    1.9138   -5.2854   39.6659 C   0  0  0  0  0  0  0  0  0  0  0  0
    1.8175   -4.3167   38.6712 C   0  0  0  0  0  0  0  0  0  0  0  0
    1.4544   -4.6862   37.3821 C   0  0  0  0  0  0  0  0  0  0  0  0
    1.1975   -6.0305   37.0709 C   0  0  0  0  0  0  0  0  0  0  0  0
    0.7639   -6.3822   35.6705 C   0  0  0  0  0  0  0  0  0  0  0  0
    1.7101   -7.1589   34.8650 N   0  0  0  0  0  0  0  0  0  0  0  0
    3.0704   -6.6991   34.8951 C   0  0  0  0  0  0  0  0  0  0  0  0
    3.7610   -7.7467   34.1517 N   0  0  0  0  0  0  0  0  0  0  0  0
    3.3819   -5.3712   34.3054 C   0  0  0  0  0  0  0  0  0  0  0  0
    4.3550   -4.6623   34.9779 O   0  0  0  0  0  0  0  0  0  0  0  0
    4.5673   -3.5562   34.2249 C   0  0  0  0  0  0  0  0  0  0  0  0
    3.8512   -3.4897   33.1298 N   0  0  0  0  0  0  0  0  0  0  0  0
    3.0488   -4.6312   33.1836 C   0  0  0  0  0  0  0  0  0  0  0  0
    2.0877   -4.9235   32.1099 C   0  0  0  0  0  0  0  0  0  0  0  0
    1.1999   -5.7139   32.2659 O   0  0  0  0  0  0  0  0  0  0  0  0
    2.4629   -4.1426   30.9558 N   0  0  0  0  0  0  0  0  0  0  0  0
    1.8655   -4.0045   29.7282 C   0  0  0  0  0  0  0  0  0  0  0  0
    0.5724   -4.2931   29.5026 C   0  0  0  0  0  0  0  0  0  0  0  0
   -0.0430   -4.0146   28.3069 N   0  0  0  0  0  0  0  0  0  0  0  0
    0.5782   -3.4157   27.2356 C   0  0  0  0  0  0  0  0  0  0  0  0
   -0.0373   -3.1245   26.2169 O   0  0  0  0  0  0  0  0  0  0  0  0
    2.0325   -3.1716   27.3716 C   0  0  0  0  0  0  0  0  0  0  0  0
    2.7487   -2.6918   26.2655 C   0  0  0  0  0  0  0  0  0  0  0  0
    4.1197   -2.4793   26.3634 C   0  0  0  0  0  0  0  0  0  0  0  0
    4.7734   -2.7614   27.5590 C   0  0  0  0  0  0  0  0  0  0  0  0
    4.0580   -3.2483   28.6623 C   0  0  0  0  0  0  0  0  0  0  0  0
    2.6672   -3.4525   28.5957 C   0  0  0  0  0  0  0  0  0  0  0  0
    1.3131   -7.0039   38.0756 C   0  0  0  0  0  0  0  0  0  0  0  0
   -0.5503   -6.7320   41.6258 C   0  0  0  0  0  0  0  0  0  0  0  0
   -0.9077   -5.8337   40.9092 O   0  0  0  0  0  0  0  0  0  0  0  0
   -1.3302   -7.0376   42.8999 C   0  0  0  0  0  0  0  0  0  0  0  0
   -2.6694   -7.5030   42.6144 N   0  0  0  0  0  0  0  0  0  0  0  0
   -3.1842   -8.7269   42.9118 C   0  0  0  0  0  0  0  0  0  0  0  0
   -4.4340   -8.7828   42.5134 N   0  0  0  0  0  0  0  0  0  0  0  0
   -4.7473   -7.5659   41.9513 N   0  0  0  0  0  0  0  0  0  0  0  0
   -3.6772   -6.8061   42.0222 C   0  0  0  0  0  0  0  0  0  0  0  0
   -0.7888   -9.1863   41.2049 H   0  0  0  0  0  0  0  0  0  0  0  0
    0.8231   -9.7104   40.9673 H   0  0  0  0  0  0  0  0  0  0  0  0
   -0.1092   -8.6955   39.7115 H   0  0  0  0  0  0  0  0  0  0  0  0
    2.5441   -7.2998   41.1513 H   0  0  0  0  0  0  0  0  0  0  0  0
    2.1697   -8.6152   40.1724 H   0  0  0  0  0  0  0  0  0  0  0  0
    2.1621   -4.9751   40.6788 H   0  0  0  0  0  0  0  0  0  0  0  0
    2.0000   -3.2725   38.9099 H   0  0  0  0  0  0  0  0  0  0  0  0
    1.3592   -3.9134   36.6221 H   0  0  0  0  0  0  0  0  0  0  0  0
    0.5016   -5.4659   35.1257 H   0  0  0  0  0  0  0  0  0  0  0  0
   -0.1727   -6.9503   35.7374 H   0  0  0  0  0  0  0  0  0  0  0  0
    1.3921   -7.1033   33.8937 H   0  0  0  0  0  0  0  0  0  0  0  0
    3.4649   -6.7361   35.9177 H   0  0  0  0  0  0  0  0  0  0  0  0
    3.6537   -8.5741   34.7349 H   0  0  0  0  0  0  0  0  0  0  0  0
    4.7583   -7.5281   34.2048 H   0  0  0  0  0  0  0  0  0  0  0  0
    5.3039   -2.8528   34.5889 H   0  0  0  0  0  0  0  0  0  0  0  0
    3.3230   -3.6383   31.1619 H   0  0  0  0  0  0  0  0  0  0  0  0
   -0.0799   -4.6913   30.2723 H   0  0  0  0  0  0  0  0  0  0  0  0
   -1.0461   -4.1481   28.1864 H   0  0  0  0  0  0  0  0  0  0  0  0
    2.2447   -2.4917   25.3220 H   0  0  0  0  0  0  0  0  0  0  0  0
    4.6697   -2.1009   25.5025 H   0  0  0  0  0  0  0  0  0  0  0  0
    5.8490   -2.6133   27.6279 H   0  0  0  0  0  0  0  0  0  0  0  0
    4.6263   -3.4787   29.5580 H   0  0  0  0  0  0  0  0  0  0  0  0
    1.1117   -8.0455   37.8318 H   0  0  0  0  0  0  0  0  0  0  0  0
   -1.4114   -6.1220   43.4956 H   0  0  0  0  0  0  0  0  0  0  0  0
   -0.8226   -7.7917   43.5110 H   0  0  0  0  0  0  0  0  0  0  0  0
   -2.6351   -9.5205   43.3992 H   0  0  0  0  0  0  0  0  0  0  0  0
   -3.5852   -5.7916   41.6550 H   0  0  0  0  0  0  0  0  0  0  0  0
  1  2  1  0
  2  3  1  0
  3  4  1  0
  4  5  2  0
  5  6  1  0
  6  7  2  0
  7  8  1  0
  8  9  1  0
  9 10  1  0
 10 11  1  0
 11 12  1  0
 11 13  1  0
 13 14  1  0
 14 15  1  0
 15 16  2  0
 16 17  1  0
 17 18  1  0
 18 19  2  0
 18 20  1  0
 20 21  1  0
 21 22  2  0
 22 23  1  0
 23 24  1  0
 24 25  2  0
 24 26  1  0
 26 27  2  0
 27 28  1  0
 28 29  2  0
 29 30  1  0
 30 31  2  0
  8 32  2  0
  2 33  1  0
 33 34  2  0
 33 35  1  0
 35 36  1  0
 36 37  1  0
 37 38  2  0
 38 39  1  0
 39 40  2  0
 32  4  1  0
 40 36  1  0
 17 13  2  0
 31 21  1  0
 31 26  1  0
  1 41  1  0
  1 42  1  0
  1 43  1  0
  3 44  1  0
  3 45  1  0
  5 46  1  0
  6 47  1  0
  7 48  1  0
  9 49  1  0
  9 50  1  0
 10 51  1  0
 11 52  1  0
 12 53  1  0
 12 54  1  0
 15 55  1  0
 20 56  1  0
 22 57  1  0
 23 58  1  0
 27 59  1  0
 28 60  1  0
 29 61  1  0
 30 62  1  0
 32 63  1  0
 35 64  1  0
 35 65  1  0
 37 66  1  0
 40 67  1  0
M  END
>  <Energy>  (806) 
64.444426644246761

>  <compound_id>  (806) 
4370

>  <target_id>  (806) 
1

>  <reference_id>  (806) 
177

>  <inspiration_ids>  (806) 
[153, 177]

>  <energy_score>  (806) 
-17.64919304041115

>  <distance_score>  (806) 
2.4948203077332547

>  <path>  (806) 
/opt/xchem-fragalysis-2/maxwin/BulkDock/SCRATCH/505735/C4370-P177/C4370-P177.minimised.mol

>  <scratch_subdir>  (806) 
/opt/xchem-fragalysis-2/maxwin/BulkDock/SCRATCH/505735/C4370-P177

>  <fragmenstein_runtime>  (806) 
45.351526975631714

>  <fragmenstein_outcome>  (806) 
too moved

>  <fragmenstein_mode>  (806) 
expansion

>  <fragmenstein_error>  (806) 


$$$$
C4371-P153
     RDKit          3D

 67 71  0  0  0  0  0  0  0  0999 V2000
    0.3105   -7.9654   37.7069 C   0  0  0  0  0  0  0  0  0  0  0  0
    0.7291   -6.5372   37.6357 N   0  0  0  0  0  0  0  0  0  0  0  0
    1.6276   -6.9722   38.7758 C   0  0  0  0  0  0  0  0  0  0  0  0
    2.6290   -5.8257   38.8096 C   0  0  0  0  0  0  0  0  0  0  0  0
    3.7529   -5.8980   37.9795 C   0  0  0  0  0  0  0  0  0  0  0  0
    4.4009   -4.7317   37.6056 C   0  0  0  0  0  0  0  0  0  0  0  0
    3.9233   -3.4878   38.0391 C   0  0  0  0  0  0  0  0  0  0  0  0
    4.4140   -2.2450   37.3477 C   0  0  0  0  0  0  0  0  0  0  0  0
    3.7491   -2.1464   36.0490 N   0  0  0  0  0  0  0  0  0  0  0  0
    4.4966   -1.3972   35.0828 C   0  0  0  0  0  0  0  0  0  0  0  0
    3.5446   -1.1670   34.0189 N   0  0  0  0  0  0  0  0  0  0  0  0
    5.6397   -2.1932   34.5600 C   0  0  0  0  0  0  0  0  0  0  0  0
    6.8824   -1.6130   34.6043 O   0  0  0  0  0  0  0  0  0  0  0  0
    7.7166   -2.5815   34.1411 C   0  0  0  0  0  0  0  0  0  0  0  0
    7.1365   -3.7109   33.8104 N   0  0  0  0  0  0  0  0  0  0  0  0
    5.7932   -3.4762   34.0602 C   0  0  0  0  0  0  0  0  0  0  0  0
    4.7381   -4.4814   33.8564 C   0  0  0  0  0  0  0  0  0  0  0  0
    4.8993   -5.5832   34.2996 O   0  0  0  0  0  0  0  0  0  0  0  0
    3.6502   -3.9245   33.0960 N   0  0  0  0  0  0  0  0  0  0  0  0
    2.4437   -4.4569   32.7323 C   0  0  0  0  0  0  0  0  0  0  0  0
    2.0273   -5.6574   33.1674 C   0  0  0  0  0  0  0  0  0  0  0  0
    0.7993   -6.1716   32.8577 N   0  0  0  0  0  0  0  0  0  0  0  0
   -0.1540   -5.4987   32.1375 C   0  0  0  0  0  0  0  0  0  0  0  0
   -1.2379   -6.0167   31.9015 O   0  0  0  0  0  0  0  0  0  0  0  0
    0.2203   -4.1433   31.6594 C   0  0  0  0  0  0  0  0  0  0  0  0
   -0.7094   -3.3737   30.9556 C   0  0  0  0  0  0  0  0  0  0  0  0
   -0.3393   -2.1536   30.3958 C   0  0  0  0  0  0  0  0  0  0  0  0
    0.9615   -1.6941   30.5505 C   0  0  0  0  0  0  0  0  0  0  0  0
    1.8832   -2.4399   31.2905 C   0  0  0  0  0  0  0  0  0  0  0  0
    1.5218   -3.6639   31.8828 C   0  0  0  0  0  0  0  0  0  0  0  0
    2.8919   -3.4327   38.9809 C   0  0  0  0  0  0  0  0  0  0  0  0
    2.2528   -4.6013   39.3777 C   0  0  0  0  0  0  0  0  0  0  0  0
   -0.4178   -5.6870   37.6257 C   0  0  0  0  0  0  0  0  0  0  0  0
   -1.0167   -5.1715   38.5321 O   0  0  0  0  0  0  0  0  0  0  0  0
   -0.8000   -5.3708   36.1879 C   0  0  0  0  0  0  0  0  0  0  0  0
   -0.3754   -4.0336   35.8384 N   0  0  0  0  0  0  0  0  0  0  0  0
   -1.1460   -2.9488   35.5657 C   0  0  0  0  0  0  0  0  0  0  0  0
   -0.3758   -1.9288   35.2548 N   0  0  0  0  0  0  0  0  0  0  0  0
    0.9272   -2.3493   35.3472 N   0  0  0  0  0  0  0  0  0  0  0  0
    0.9098   -3.6107   35.7174 C   0  0  0  0  0  0  0  0  0  0  0  0
   -0.5036   -8.0829   36.9777 H   0  0  0  0  0  0  0  0  0  0  0  0
   -0.1169   -8.2861   38.6677 H   0  0  0  0  0  0  0  0  0  0  0  0
    1.0938   -8.6241   37.3202 H   0  0  0  0  0  0  0  0  0  0  0  0
    2.2437   -7.8793   38.6567 H   0  0  0  0  0  0  0  0  0  0  0  0
    1.0911   -6.9725   39.7372 H   0  0  0  0  0  0  0  0  0  0  0  0
    4.0516   -6.8351   37.5167 H   0  0  0  0  0  0  0  0  0  0  0  0
    5.2133   -4.7874   36.8841 H   0  0  0  0  0  0  0  0  0  0  0  0
    5.5057   -2.3147   37.2611 H   0  0  0  0  0  0  0  0  0  0  0  0
    4.2088   -1.3522   37.9506 H   0  0  0  0  0  0  0  0  0  0  0  0
    2.8306   -1.7256   36.2015 H   0  0  0  0  0  0  0  0  0  0  0  0
    4.8372   -0.4354   35.4838 H   0  0  0  0  0  0  0  0  0  0  0  0
    2.7146   -1.7319   34.2471 H   0  0  0  0  0  0  0  0  0  0  0  0
    3.1848   -0.2170   34.1218 H   0  0  0  0  0  0  0  0  0  0  0  0
    8.7676   -2.3329   34.0935 H   0  0  0  0  0  0  0  0  0  0  0  0
    3.8157   -2.9283   32.9607 H   0  0  0  0  0  0  0  0  0  0  0  0
    2.6312   -6.2789   33.8191 H   0  0  0  0  0  0  0  0  0  0  0  0
    0.5254   -7.0889   33.1856 H   0  0  0  0  0  0  0  0  0  0  0  0
   -1.7281   -3.7086   30.8313 H   0  0  0  0  0  0  0  0  0  0  0  0
   -1.0628   -1.5709   29.8291 H   0  0  0  0  0  0  0  0  0  0  0  0
    1.2584   -0.7474   30.1049 H   0  0  0  0  0  0  0  0  0  0  0  0
    2.8851   -2.0320   31.3855 H   0  0  0  0  0  0  0  0  0  0  0  0
    2.5083   -2.4753   39.3256 H   0  0  0  0  0  0  0  0  0  0  0  0
    1.3643   -4.5314   40.0035 H   0  0  0  0  0  0  0  0  0  0  0  0
   -0.3380   -6.0642   35.4794 H   0  0  0  0  0  0  0  0  0  0  0  0
   -1.8811   -5.4454   36.0776 H   0  0  0  0  0  0  0  0  0  0  0  0
   -2.2250   -2.9374   35.6017 H   0  0  0  0  0  0  0  0  0  0  0  0
    1.7724   -4.2364   35.9024 H   0  0  0  0  0  0  0  0  0  0  0  0
  1  2  1  0
  2  3  1  0
  3  4  1  0
  4  5  2  0
  5  6  1  0
  6  7  2  0
  7  8  1  0
  8  9  1  0
  9 10  1  0
 10 11  1  0
 10 12  1  0
 12 13  1  0
 13 14  1  0
 14 15  2  0
 15 16  1  0
 16 17  1  0
 17 18  2  0
 17 19  1  0
 19 20  1  0
 20 21  2  0
 21 22  1  0
 22 23  1  0
 23 24  2  0
 23 25  1  0
 25 26  2  0
 26 27  1  0
 27 28  2  0
 28 29  1  0
 29 30  2  0
  7 31  1  0
 31 32  2  0
  2 33  1  0
 33 34  2  0
 33 35  1  0
 35 36  1  0
 36 37  1  0
 37 38  2  0
 38 39  1  0
 39 40  2  0
 32  4  1  0
 40 36  1  0
 16 12  2  0
 30 20  1  0
 30 25  1  0
  1 41  1  0
  1 42  1  0
  1 43  1  0
  3 44  1  0
  3 45  1  0
  5 46  1  0
  6 47  1  0
  8 48  1  0
  8 49  1  0
  9 50  1  0
 10 51  1  0
 11 52  1  0
 11 53  1  0
 14 54  1  0
 19 55  1  0
 21 56  1  0
 22 57  1  0
 26 58  1  0
 27 59  1  0
 28 60  1  0
 29 61  1  0
 31 62  1  0
 32 63  1  0
 35 64  1  0
 35 65  1  0
 37 66  1  0
 40 67  1  0
M  END
>  <Energy>  (807) 
55.935123028488398

>  <compound_id>  (807) 
4371

>  <target_id>  (807) 
1

>  <reference_id>  (807) 
153

>  <inspiration_ids>  (807) 
[153, 186]

>  <energy_score>  (807) 
-39.598882429366455

>  <distance_score>  (807) 
3.9525267289772694

>  <path>  (807) 
/opt/xchem-fragalysis-2/maxwin/BulkDock/SCRATCH/505735/C4371-P153/C4371-P153.minimised.mol

>  <scratch_subdir>  (807) 
/opt/xchem-fragalysis-2/maxwin/BulkDock/SCRATCH/505735/C4371-P153

>  <fragmenstein_runtime>  (807) 
46.89309620857239

>  <fragmenstein_outcome>  (807) 
too moved

>  <fragmenstein_mode>  (807) 
expansion

>  <fragmenstein_error>  (807) 


$$$$
C4371-P186
     RDKit          3D

 67 71  0  0  0  0  0  0  0  0999 V2000
    1.1694   -9.2503   41.2204 C   0  0  0  0  0  0  0  0  0  0  0  0
    2.3538   -8.3351   41.3918 N   0  0  0  0  0  0  0  0  0  0  0  0
    2.3508   -8.4720   39.8820 C   0  0  0  0  0  0  0  0  0  0  0  0
    1.6727   -7.3161   39.1618 C   0  0  0  0  0  0  0  0  0  0  0  0
    0.7981   -7.5409   38.0952 C   0  0  0  0  0  0  0  0  0  0  0  0
    0.2356   -6.4828   37.3820 C   0  0  0  0  0  0  0  0  0  0  0  0
    0.5580   -5.1695   37.7021 C   0  0  0  0  0  0  0  0  0  0  0  0
    0.1553   -4.0678   36.7577 C   0  0  0  0  0  0  0  0  0  0  0  0
    1.0596   -3.9885   35.6073 N   0  0  0  0  0  0  0  0  0  0  0  0
    2.3803   -3.4971   35.9394 C   0  0  0  0  0  0  0  0  0  0  0  0
    2.8259   -2.9266   34.6806 N   0  0  0  0  0  0  0  0  0  0  0  0
    3.3837   -4.5355   36.3441 C   0  0  0  0  0  0  0  0  0  0  0  0
    4.3925   -4.0792   37.1657 O   0  0  0  0  0  0  0  0  0  0  0  0
    5.1607   -5.1735   37.4031 C   0  0  0  0  0  0  0  0  0  0  0  0
    4.7711   -6.2695   36.8024 N   0  0  0  0  0  0  0  0  0  0  0  0
    3.6308   -5.8849   36.1113 C   0  0  0  0  0  0  0  0  0  0  0  0
    2.8337   -6.8248   35.3090 C   0  0  0  0  0  0  0  0  0  0  0  0
    2.7730   -7.9549   35.5924 O   0  0  0  0  0  0  0  0  0  0  0  0
    2.1156   -6.0347   34.2020 N   0  0  0  0  0  0  0  0  0  0  0  0
    1.1643   -6.4184   33.3287 C   0  0  0  0  0  0  0  0  0  0  0  0
    0.3038   -7.3968   33.6281 C   0  0  0  0  0  0  0  0  0  0  0  0
   -0.6595   -7.8262   32.7632 N   0  0  0  0  0  0  0  0  0  0  0  0
   -0.8101   -7.3304   31.5004 C   0  0  0  0  0  0  0  0  0  0  0  0
   -1.6043   -7.8292   30.7124 O   0  0  0  0  0  0  0  0  0  0  0  0
    0.0510   -6.1541   31.1791 C   0  0  0  0  0  0  0  0  0  0  0  0
   -0.0671   -5.5109   29.9636 C   0  0  0  0  0  0  0  0  0  0  0  0
    0.7050   -4.3989   29.6180 C   0  0  0  0  0  0  0  0  0  0  0  0
    1.6588   -3.9328   30.5000 C   0  0  0  0  0  0  0  0  0  0  0  0
    1.8208   -4.5848   31.7169 C   0  0  0  0  0  0  0  0  0  0  0  0
    1.0092   -5.6843   32.0718 C   0  0  0  0  0  0  0  0  0  0  0  0
    1.3921   -4.9432   38.8104 C   0  0  0  0  0  0  0  0  0  0  0  0
    1.9537   -6.0012   39.5237 C   0  0  0  0  0  0  0  0  0  0  0  0
    3.3194   -8.8751   42.4309 C   0  0  0  0  0  0  0  0  0  0  0  0
    4.2447   -9.5920   42.3104 O   0  0  0  0  0  0  0  0  0  0  0  0
    2.9332   -8.2458   43.7622 C   0  0  0  0  0  0  0  0  0  0  0  0
    2.5943   -9.2367   44.7561 N   0  0  0  0  0  0  0  0  0  0  0  0
    3.4340  -10.1291   45.3468 C   0  0  0  0  0  0  0  0  0  0  0  0
    2.7742  -10.8070   46.2584 N   0  0  0  0  0  0  0  0  0  0  0  0
    1.4740  -10.3522   46.2587 N   0  0  0  0  0  0  0  0  0  0  0  0
    1.3824   -9.4098   45.3489 C   0  0  0  0  0  0  0  0  0  0  0  0
    0.7349   -9.3178   42.2291 H   0  0  0  0  0  0  0  0  0  0  0  0
    1.4643  -10.2923   41.0236 H   0  0  0  0  0  0  0  0  0  0  0  0
    0.3248   -8.8758   40.6243 H   0  0  0  0  0  0  0  0  0  0  0  0
    2.2323   -9.4617   39.4082 H   0  0  0  0  0  0  0  0  0  0  0  0
    3.4191   -8.3092   39.6554 H   0  0  0  0  0  0  0  0  0  0  0  0
    0.5707   -8.5569   37.7903 H   0  0  0  0  0  0  0  0  0  0  0  0
   -0.4094   -6.6982   36.5346 H   0  0  0  0  0  0  0  0  0  0  0  0
    0.0959   -3.1073   37.2845 H   0  0  0  0  0  0  0  0  0  0  0  0
   -0.8602   -4.2705   36.3943 H   0  0  0  0  0  0  0  0  0  0  0  0
    0.6436   -3.3555   34.9310 H   0  0  0  0  0  0  0  0  0  0  0  0
    2.3418   -2.6936   36.6851 H   0  0  0  0  0  0  0  0  0  0  0  0
    2.2849   -2.0807   34.5077 H   0  0  0  0  0  0  0  0  0  0  0  0
    3.7807   -2.5873   34.8207 H   0  0  0  0  0  0  0  0  0  0  0  0
    6.0132   -5.0374   38.0536 H   0  0  0  0  0  0  0  0  0  0  0  0
    2.4645   -5.0820   34.1855 H   0  0  0  0  0  0  0  0  0  0  0  0
    0.3241   -7.9106   34.5842 H   0  0  0  0  0  0  0  0  0  0  0  0
   -1.2616   -8.6034   33.0267 H   0  0  0  0  0  0  0  0  0  0  0  0
   -0.7611   -5.8866   29.2312 H   0  0  0  0  0  0  0  0  0  0  0  0
    0.5624   -3.9203   28.6510 H   0  0  0  0  0  0  0  0  0  0  0  0
    2.2819   -3.0819   30.2394 H   0  0  0  0  0  0  0  0  0  0  0  0
    2.6032   -4.2168   32.3716 H   0  0  0  0  0  0  0  0  0  0  0  0
    1.6609   -3.9264   39.0892 H   0  0  0  0  0  0  0  0  0  0  0  0
    2.6318   -5.7909   40.3472 H   0  0  0  0  0  0  0  0  0  0  0  0
    3.7858   -7.6692   44.1378 H   0  0  0  0  0  0  0  0  0  0  0  0
    2.0880   -7.5574   43.6575 H   0  0  0  0  0  0  0  0  0  0  0  0
    4.4780  -10.2473   45.0898 H   0  0  0  0  0  0  0  0  0  0  0  0
    0.4935   -8.8460   45.1034 H   0  0  0  0  0  0  0  0  0  0  0  0
  1  2  1  0
  2  3  1  0
  3  4  1  0
  4  5  2  0
  5  6  1  0
  6  7  2  0
  7  8  1  0
  8  9  1  0
  9 10  1  0
 10 11  1  0
 10 12  1  0
 12 13  1  0
 13 14  1  0
 14 15  2  0
 15 16  1  0
 16 17  1  0
 17 18  2  0
 17 19  1  0
 19 20  1  0
 20 21  2  0
 21 22  1  0
 22 23  1  0
 23 24  2  0
 23 25  1  0
 25 26  2  0
 26 27  1  0
 27 28  2  0
 28 29  1  0
 29 30  2  0
  7 31  1  0
 31 32  2  0
  2 33  1  0
 33 34  2  0
 33 35  1  0
 35 36  1  0
 36 37  1  0
 37 38  2  0
 38 39  1  0
 39 40  2  0
 32  4  1  0
 40 36  1  0
 16 12  2  0
 30 20  1  0
 30 25  1  0
  1 41  1  0
  1 42  1  0
  1 43  1  0
  3 44  1  0
  3 45  1  0
  5 46  1  0
  6 47  1  0
  8 48  1  0
  8 49  1  0
  9 50  1  0
 10 51  1  0
 11 52  1  0
 11 53  1  0
 14 54  1  0
 19 55  1  0
 21 56  1  0
 22 57  1  0
 26 58  1  0
 27 59  1  0
 28 60  1  0
 29 61  1  0
 31 62  1  0
 32 63  1  0
 35 64  1  0
 35 65  1  0
 37 66  1  0
 40 67  1  0
M  END
>  <Energy>  (808) 
91.139804986059829

>  <compound_id>  (808) 
4371

>  <target_id>  (808) 
1

>  <reference_id>  (808) 
186

>  <inspiration_ids>  (808) 
[153, 186]

>  <energy_score>  (808) 
21.296839287509698

>  <distance_score>  (808) 
2.896503121919611

>  <path>  (808) 
/opt/xchem-fragalysis-2/maxwin/BulkDock/SCRATCH/505735/C4371-P186/C4371-P186.minimised.mol

>  <scratch_subdir>  (808) 
/opt/xchem-fragalysis-2/maxwin/BulkDock/SCRATCH/505735/C4371-P186

>  <fragmenstein_runtime>  (808) 
39.45060396194458

>  <fragmenstein_outcome>  (808) 
too moved

>  <fragmenstein_mode>  (808) 
expansion

>  <fragmenstein_error>  (808) 


$$$$
C4372-P153
     RDKit          3D

 72 77  0  0  0  0  0  0  0  0999 V2000
    4.3411    1.5976   35.9437 C   0  0  0  0  0  0  0  0  0  0  0  0
    3.8571    0.3329   35.4705 N   0  0  0  0  0  0  0  0  0  0  0  0
    4.1406   -0.9985   35.9003 C   0  0  0  0  0  0  0  0  0  0  0  0
    4.9140   -1.4086   36.7137 O   0  0  0  0  0  0  0  0  0  0  0  0
    3.3351   -2.0265   35.1745 C   0  0  0  0  0  0  0  0  0  0  0  0
    3.9682   -3.2025   34.7536 C   0  0  0  0  0  0  0  0  0  0  0  0
    3.2460   -4.1798   34.0638 C   0  0  0  0  0  0  0  0  0  0  0  0
    1.8839   -3.9916   33.7997 C   0  0  0  0  0  0  0  0  0  0  0  0
    1.1215   -5.0003   33.0439 C   0  0  0  0  0  0  0  0  0  0  0  0
    0.3416   -5.8356   33.7627 C   0  0  0  0  0  0  0  0  0  0  0  0
   -0.4289   -6.7905   33.1088 N   0  0  0  0  0  0  0  0  0  0  0  0
   -1.2860   -7.7614   33.5824 C   0  0  0  0  0  0  0  0  0  0  0  0
   -1.5199   -7.9812   34.9003 N   0  0  0  0  0  0  0  0  0  0  0  0
   -1.7810   -8.4278   32.5598 N   0  0  0  0  0  0  0  0  0  0  0  0
   -1.2623   -7.9161   31.3961 N   0  0  0  0  0  0  0  0  0  0  0  0
   -0.4453   -6.9471   31.7343 C   0  0  0  0  0  0  0  0  0  0  0  0
    0.3600   -6.0776   30.9671 C   0  0  0  0  0  0  0  0  0  0  0  0
    1.1113   -5.1297   31.5699 C   0  0  0  0  0  0  0  0  0  0  0  0
    1.8651   -4.1326   30.7139 C   0  0  0  0  0  0  0  0  0  0  0  0
    0.9189   -3.1227   30.0431 C   0  0  0  0  0  0  0  0  0  0  0  0
    0.1400   -2.3953   31.0467 N   0  0  0  0  0  0  0  0  0  0  0  0
   -1.0325   -1.7722   30.4950 C   0  0  0  0  0  0  0  0  0  0  0  0
   -1.6891   -1.2312   31.6645 N   0  0  0  0  0  0  0  0  0  0  0  0
   -0.7640   -0.7096   29.5017 C   0  0  0  0  0  0  0  0  0  0  0  0
   -1.4408   -0.8046   28.3163 O   0  0  0  0  0  0  0  0  0  0  0  0
   -1.0455    0.2815   27.6065 C   0  0  0  0  0  0  0  0  0  0  0  0
   -0.1916    1.0687   28.2227 N   0  0  0  0  0  0  0  0  0  0  0  0
    0.0264    0.4201   29.4359 C   0  0  0  0  0  0  0  0  0  0  0  0
    0.9693    0.9273   30.4400 C   0  0  0  0  0  0  0  0  0  0  0  0
    1.3279    0.2378   31.3523 O   0  0  0  0  0  0  0  0  0  0  0  0
    1.3444    2.2650   30.0697 N   0  0  0  0  0  0  0  0  0  0  0  0
    2.1510    3.1792   30.6956 C   0  0  0  0  0  0  0  0  0  0  0  0
    2.8673    2.8703   31.7900 C   0  0  0  0  0  0  0  0  0  0  0  0
    3.7085    3.7624   32.3982 N   0  0  0  0  0  0  0  0  0  0  0  0
    3.9228    5.0480   31.9656 C   0  0  0  0  0  0  0  0  0  0  0  0
    4.7036    5.7952   32.5429 O   0  0  0  0  0  0  0  0  0  0  0  0
    3.1493    5.4718   30.7721 C   0  0  0  0  0  0  0  0  0  0  0  0
    3.2990    6.7843   30.3020 C   0  0  0  0  0  0  0  0  0  0  0  0
    2.5581    7.2157   29.2064 C   0  0  0  0  0  0  0  0  0  0  0  0
    1.6703    6.3400   28.5886 C   0  0  0  0  0  0  0  0  0  0  0  0
    1.5263    5.0268   29.0543 C   0  0  0  0  0  0  0  0  0  0  0  0
    2.2696    4.5607   30.1520 C   0  0  0  0  0  0  0  0  0  0  0  0
    1.2477   -2.8273   34.2519 C   0  0  0  0  0  0  0  0  0  0  0  0
    1.9670   -1.8482   34.9400 C   0  0  0  0  0  0  0  0  0  0  0  0
    4.9069    2.0739   35.1403 H   0  0  0  0  0  0  0  0  0  0  0  0
    3.4841    2.2204   36.2085 H   0  0  0  0  0  0  0  0  0  0  0  0
    4.9828    1.4472   36.8146 H   0  0  0  0  0  0  0  0  0  0  0  0
    3.1985    0.2982   34.7011 H   0  0  0  0  0  0  0  0  0  0  0  0
    5.0262   -3.3523   34.9602 H   0  0  0  0  0  0  0  0  0  0  0  0
    3.7548   -5.0809   33.7321 H   0  0  0  0  0  0  0  0  0  0  0  0
    0.2628   -5.7981   34.8427 H   0  0  0  0  0  0  0  0  0  0  0  0
   -0.7983   -7.7363   35.5707 H   0  0  0  0  0  0  0  0  0  0  0  0
   -1.7643   -8.9724   35.0825 H   0  0  0  0  0  0  0  0  0  0  0  0
    0.3109   -6.1657   29.8900 H   0  0  0  0  0  0  0  0  0  0  0  0
    2.6337   -3.5986   31.2822 H   0  0  0  0  0  0  0  0  0  0  0  0
    2.4115   -4.6748   29.9303 H   0  0  0  0  0  0  0  0  0  0  0  0
    0.2565   -3.6627   29.3542 H   0  0  0  0  0  0  0  0  0  0  0  0
    1.5121   -2.4262   29.4390 H   0  0  0  0  0  0  0  0  0  0  0  0
    0.7153   -1.6580   31.4674 H   0  0  0  0  0  0  0  0  0  0  0  0
   -1.6845   -2.5412   30.0626 H   0  0  0  0  0  0  0  0  0  0  0  0
   -2.6729   -1.1151   31.4356 H   0  0  0  0  0  0  0  0  0  0  0  0
   -1.6531   -1.9738   32.3609 H   0  0  0  0  0  0  0  0  0  0  0  0
   -1.4792    0.3910   26.6217 H   0  0  0  0  0  0  0  0  0  0  0  0
    0.8982    2.5013   29.1849 H   0  0  0  0  0  0  0  0  0  0  0  0
    2.8468    1.8878   32.2487 H   0  0  0  0  0  0  0  0  0  0  0  0
    4.2538    3.4826   33.2043 H   0  0  0  0  0  0  0  0  0  0  0  0
    3.9841    7.4703   30.7958 H   0  0  0  0  0  0  0  0  0  0  0  0
    2.6614    8.2349   28.8429 H   0  0  0  0  0  0  0  0  0  0  0  0
    1.0702    6.6799   27.7463 H   0  0  0  0  0  0  0  0  0  0  0  0
    0.7985    4.4046   28.5412 H   0  0  0  0  0  0  0  0  0  0  0  0
    0.1872   -2.6724   34.0618 H   0  0  0  0  0  0  0  0  0  0  0  0
    1.4461   -0.9651   35.3002 H   0  0  0  0  0  0  0  0  0  0  0  0
  1  2  1  0
  2  3  1  0
  3  4  2  0
  3  5  1  0
  5  6  2  0
  6  7  1  0
  7  8  2  0
  8  9  1  0
  9 10  2  0
 10 11  1  0
 11 12  1  0
 12 13  1  0
 12 14  2  0
 14 15  1  0
 15 16  2  0
 16 17  1  0
 17 18  2  0
 18 19  1  0
 19 20  1  0
 20 21  1  0
 21 22  1  0
 22 23  1  0
 22 24  1  0
 24 25  1  0
 25 26  1  0
 26 27  2  0
 27 28  1  0
 28 29  1  0
 29 30  2  0
 29 31  1  0
 31 32  1  0
 32 33  2  0
 33 34  1  0
 34 35  1  0
 35 36  2  0
 35 37  1  0
 37 38  2  0
 38 39  1  0
 39 40  2  0
 40 41  1  0
 41 42  2  0
  8 43  1  0
 43 44  2  0
 44  5  1  0
 18  9  1  0
 28 24  2  0
 42 32  1  0
 16 11  1  0
 42 37  1  0
  1 45  1  0
  1 46  1  0
  1 47  1  0
  2 48  1  0
  6 49  1  0
  7 50  1  0
 10 51  1  0
 13 52  1  0
 13 53  1  0
 17 54  1  0
 19 55  1  0
 19 56  1  0
 20 57  1  0
 20 58  1  0
 21 59  1  0
 22 60  1  0
 23 61  1  0
 23 62  1  0
 26 63  1  0
 31 64  1  0
 33 65  1  0
 34 66  1  0
 38 67  1  0
 39 68  1  0
 40 69  1  0
 41 70  1  0
 43 71  1  0
 44 72  1  0
M  END
>  <Energy>  (809) 
34.792816081526006

>  <compound_id>  (809) 
4372

>  <target_id>  (809) 
1

>  <reference_id>  (809) 
153

>  <inspiration_ids>  (809) 
[153, 187]

>  <energy_score>  (809) 
-112.83859155742977

>  <distance_score>  (809) 
1.172205280000004

>  <path>  (809) 
/opt/xchem-fragalysis-2/maxwin/BulkDock/SCRATCH/505735/C4372-P153/C4372-P153.minimised.mol

>  <scratch_subdir>  (809) 
/opt/xchem-fragalysis-2/maxwin/BulkDock/SCRATCH/505735/C4372-P153

>  <fragmenstein_runtime>  (809) 
12.340625047683716

>  <fragmenstein_outcome>  (809) 
too moved

>  <fragmenstein_mode>  (809) 
expansion

>  <fragmenstein_error>  (809) 


$$$$
C4372-P187
     RDKit          3D

 72 77  0  0  0  0  0  0  0  0999 V2000
    5.8345   -0.5622   37.6778 C   0  0  0  0  0  0  0  0  0  0  0  0
    5.0129   -1.2516   36.7243 N   0  0  0  0  0  0  0  0  0  0  0  0
    4.1723   -0.7577   35.6828 C   0  0  0  0  0  0  0  0  0  0  0  0
    3.9948    0.3549   35.2833 O   0  0  0  0  0  0  0  0  0  0  0  0
    3.4361   -1.8478   34.9736 C   0  0  0  0  0  0  0  0  0  0  0  0
    4.1033   -2.9784   34.4838 C   0  0  0  0  0  0  0  0  0  0  0  0
    3.3894   -3.9702   33.8014 C   0  0  0  0  0  0  0  0  0  0  0  0
    2.0090   -3.8362   33.5970 C   0  0  0  0  0  0  0  0  0  0  0  0
    1.2638   -4.8608   32.8401 C   0  0  0  0  0  0  0  0  0  0  0  0
    0.4823   -5.7036   33.5499 C   0  0  0  0  0  0  0  0  0  0  0  0
   -0.2571   -6.6800   32.8884 N   0  0  0  0  0  0  0  0  0  0  0  0
   -1.1294   -7.6440   33.3470 C   0  0  0  0  0  0  0  0  0  0  0  0
   -1.4074   -7.8425   34.6590 N   0  0  0  0  0  0  0  0  0  0  0  0
   -1.5911   -8.3282   32.3200 N   0  0  0  0  0  0  0  0  0  0  0  0
   -1.0238   -7.8452   31.1682 N   0  0  0  0  0  0  0  0  0  0  0  0
   -0.2213   -6.8683   31.5187 C   0  0  0  0  0  0  0  0  0  0  0  0
    0.5804   -5.9903   30.7606 C   0  0  0  0  0  0  0  0  0  0  0  0
    1.2686   -4.9979   31.3653 C   0  0  0  0  0  0  0  0  0  0  0  0
    1.8827   -3.9170   30.4986 C   0  0  0  0  0  0  0  0  0  0  0  0
    0.7971   -3.0321   29.8479 C   0  0  0  0  0  0  0  0  0  0  0  0
   -0.1095   -2.5180   30.8724 N   0  0  0  0  0  0  0  0  0  0  0  0
   -1.2567   -1.8302   30.3498 C   0  0  0  0  0  0  0  0  0  0  0  0
   -2.0069   -1.5637   31.5584 N   0  0  0  0  0  0  0  0  0  0  0  0
   -0.9766   -0.5604   29.6402 C   0  0  0  0  0  0  0  0  0  0  0  0
   -1.6825   -0.3265   28.4904 O   0  0  0  0  0  0  0  0  0  0  0  0
   -1.2806    0.9081   28.0912 C   0  0  0  0  0  0  0  0  0  0  0  0
   -0.3951    1.4888   28.8720 N   0  0  0  0  0  0  0  0  0  0  0  0
   -0.1754    0.5429   29.8663 C   0  0  0  0  0  0  0  0  0  0  0  0
    0.7573    0.7447   30.9813 C   0  0  0  0  0  0  0  0  0  0  0  0
    1.1030   -0.1915   31.6425 O   0  0  0  0  0  0  0  0  0  0  0  0
    1.1269    2.1294   31.0518 N   0  0  0  0  0  0  0  0  0  0  0  0
    1.9122    2.8059   31.9483 C   0  0  0  0  0  0  0  0  0  0  0  0
    2.5555    2.1627   32.9364 C   0  0  0  0  0  0  0  0  0  0  0  0
    3.3704    2.7947   33.8352 N   0  0  0  0  0  0  0  0  0  0  0  0
    3.6342    4.1415   33.8266 C   0  0  0  0  0  0  0  0  0  0  0  0
    4.3859    4.6698   34.6379 O   0  0  0  0  0  0  0  0  0  0  0  0
    2.9415    4.9289   32.7701 C   0  0  0  0  0  0  0  0  0  0  0  0
    3.1415    6.3162   32.7226 C   0  0  0  0  0  0  0  0  0  0  0  0
    2.4802    7.0804   31.7658 C   0  0  0  0  0  0  0  0  0  0  0  0
    1.6198    6.4607   30.8641 C   0  0  0  0  0  0  0  0  0  0  0  0
    1.4241    5.0745   30.9060 C   0  0  0  0  0  0  0  0  0  0  0  0
    2.0866    4.2781   31.8547 C   0  0  0  0  0  0  0  0  0  0  0  0
    1.3509   -2.6991   34.0864 C   0  0  0  0  0  0  0  0  0  0  0  0
    2.0617   -1.7044   34.7640 C   0  0  0  0  0  0  0  0  0  0  0  0
    6.8693   -0.8830   37.5395 H   0  0  0  0  0  0  0  0  0  0  0  0
    5.7519    0.5166   37.5275 H   0  0  0  0  0  0  0  0  0  0  0  0
    5.4984   -0.8290   38.6822 H   0  0  0  0  0  0  0  0  0  0  0  0
    4.9713   -2.2631   36.7299 H   0  0  0  0  0  0  0  0  0  0  0  0
    5.1799   -3.0777   34.5964 H   0  0  0  0  0  0  0  0  0  0  0  0
    3.9199   -4.8352   33.4110 H   0  0  0  0  0  0  0  0  0  0  0  0
    0.3765   -5.6568   34.6269 H   0  0  0  0  0  0  0  0  0  0  0  0
   -0.7038   -7.5962   35.3463 H   0  0  0  0  0  0  0  0  0  0  0  0
   -1.6642   -8.8316   34.8332 H   0  0  0  0  0  0  0  0  0  0  0  0
    0.5322   -6.0682   29.6842 H   0  0  0  0  0  0  0  0  0  0  0  0
    2.5773   -3.2859   31.0627 H   0  0  0  0  0  0  0  0  0  0  0  0
    2.4850   -4.3817   29.7069 H   0  0  0  0  0  0  0  0  0  0  0  0
    0.2389   -3.6239   29.1118 H   0  0  0  0  0  0  0  0  0  0  0  0
    1.2876   -2.2157   29.3056 H   0  0  0  0  0  0  0  0  0  0  0  0
    0.4006   -1.8526   31.4664 H   0  0  0  0  0  0  0  0  0  0  0  0
   -1.8367   -2.5080   29.7129 H   0  0  0  0  0  0  0  0  0  0  0  0
   -2.9803   -1.4434   31.2978 H   0  0  0  0  0  0  0  0  0  0  0  0
   -1.9537   -2.4197   32.1062 H   0  0  0  0  0  0  0  0  0  0  0  0
   -1.7332    1.2913   27.1864 H   0  0  0  0  0  0  0  0  0  0  0  0
    0.6973    2.6266   30.2747 H   0  0  0  0  0  0  0  0  0  0  0  0
    2.4914    1.0906   33.0883 H   0  0  0  0  0  0  0  0  0  0  0  0
    3.8283    2.2259   34.5511 H   0  0  0  0  0  0  0  0  0  0  0  0
    3.8051    6.7984   33.4371 H   0  0  0  0  0  0  0  0  0  0  0  0
    2.6261    8.1569   31.7304 H   0  0  0  0  0  0  0  0  0  0  0  0
    1.0840    7.0555   30.1269 H   0  0  0  0  0  0  0  0  0  0  0  0
    0.7243    4.6546   30.1889 H   0  0  0  0  0  0  0  0  0  0  0  0
    0.2838   -2.5636   33.9167 H   0  0  0  0  0  0  0  0  0  0  0  0
    1.5436   -0.8135   35.1128 H   0  0  0  0  0  0  0  0  0  0  0  0
  1  2  1  0
  2  3  1  0
  3  4  2  0
  3  5  1  0
  5  6  2  0
  6  7  1  0
  7  8  2  0
  8  9  1  0
  9 10  2  0
 10 11  1  0
 11 12  1  0
 12 13  1  0
 12 14  2  0
 14 15  1  0
 15 16  2  0
 16 17  1  0
 17 18  2  0
 18 19  1  0
 19 20  1  0
 20 21  1  0
 21 22  1  0
 22 23  1  0
 22 24  1  0
 24 25  1  0
 25 26  1  0
 26 27  2  0
 27 28  1  0
 28 29  1  0
 29 30  2  0
 29 31  1  0
 31 32  1  0
 32 33  2  0
 33 34  1  0
 34 35  1  0
 35 36  2  0
 35 37  1  0
 37 38  2  0
 38 39  1  0
 39 40  2  0
 40 41  1  0
 41 42  2  0
  8 43  1  0
 43 44  2  0
 44  5  1  0
 18  9  1  0
 28 24  2  0
 42 32  1  0
 16 11  1  0
 42 37  1  0
  1 45  1  0
  1 46  1  0
  1 47  1  0
  2 48  1  0
  6 49  1  0
  7 50  1  0
 10 51  1  0
 13 52  1  0
 13 53  1  0
 17 54  1  0
 19 55  1  0
 19 56  1  0
 20 57  1  0
 20 58  1  0
 21 59  1  0
 22 60  1  0
 23 61  1  0
 23 62  1  0
 26 63  1  0
 31 64  1  0
 33 65  1  0
 34 66  1  0
 38 67  1  0
 39 68  1  0
 40 69  1  0
 41 70  1  0
 43 71  1  0
 44 72  1  0
M  END
>  <Energy>  (810) 
31.95326066435867

>  <compound_id>  (810) 
4372

>  <target_id>  (810) 
1

>  <reference_id>  (810) 
187

>  <inspiration_ids>  (810) 
[153, 187]

>  <energy_score>  (810) 
-115.67814697460108

>  <distance_score>  (810) 
1.2792104088500895

>  <path>  (810) 
/opt/xchem-fragalysis-2/maxwin/BulkDock/SCRATCH/505735/C4372-P187/C4372-P187.minimised.mol

>  <scratch_subdir>  (810) 
/opt/xchem-fragalysis-2/maxwin/BulkDock/SCRATCH/505735/C4372-P187

>  <fragmenstein_runtime>  (810) 
11.904052019119263

>  <fragmenstein_outcome>  (810) 
too moved

>  <fragmenstein_mode>  (810) 
expansion

>  <fragmenstein_error>  (810) 


$$$$
C4375-P153
     RDKit          3D

 71 77  0  0  0  0  0  0  0  0999 V2000
   -0.7333   -3.7860   33.0611 N   0  0  0  0  0  0  0  0  0  0  0  0
    0.3138   -2.8863   32.6460 C   0  0  0  0  0  0  0  0  0  0  0  0
    1.2031   -2.8256   33.7800 N   0  0  0  0  0  0  0  0  0  0  0  0
    2.5803   -2.5816   33.3324 C   0  0  0  0  0  0  0  0  0  0  0  0
    3.3738   -3.8865   33.1283 C   0  0  0  0  0  0  0  0  0  0  0  0
    3.7798   -4.5694   34.4287 C   0  0  0  0  0  0  0  0  0  0  0  0
    4.6430   -3.9539   35.2755 C   0  0  0  0  0  0  0  0  0  0  0  0
    5.0364   -4.5161   36.5587 C   0  0  0  0  0  0  0  0  0  0  0  0
    4.6054   -5.7403   36.9230 C   0  0  0  0  0  0  0  0  0  0  0  0
    4.8198   -6.2592   38.2142 N   0  0  0  0  0  0  0  0  0  0  0  0
    3.7400   -6.5147   39.0091 C   0  0  0  0  0  0  0  0  0  0  0  0
    3.3783   -7.6229   39.6118 N   0  0  0  0  0  0  0  0  0  0  0  0
    1.9914   -7.6354   39.6041 N   0  0  0  0  0  0  0  0  0  0  0  0
    1.5902   -6.5192   39.0191 C   0  0  0  0  0  0  0  0  0  0  0  0
    0.4764   -6.3122   38.1017 C   0  0  0  0  0  0  0  0  0  0  0  0
    0.0965   -7.3815   37.2818 C   0  0  0  0  0  0  0  0  0  0  0  0
   -0.6800   -7.1658   36.1483 C   0  0  0  0  0  0  0  0  0  0  0  0
   -1.1145   -5.8805   35.8529 C   0  0  0  0  0  0  0  0  0  0  0  0
   -0.8224   -4.8192   36.7082 C   0  0  0  0  0  0  0  0  0  0  0  0
   -0.0250   -5.0322   37.8318 C   0  0  0  0  0  0  0  0  0  0  0  0
    2.6656   -5.6593   39.0175 N   0  0  0  0  0  0  0  0  0  0  0  0
    3.7934   -6.4297   35.9911 N   0  0  0  0  0  0  0  0  0  0  0  0
    3.2670   -7.6953   36.0076 C   0  0  0  0  0  0  0  0  0  0  0  0
    2.5344   -7.9052   34.9364 N   0  0  0  0  0  0  0  0  0  0  0  0
    2.5338   -6.7430   34.2025 N   0  0  0  0  0  0  0  0  0  0  0  0
    3.3312   -5.8798   34.8013 C   0  0  0  0  0  0  0  0  0  0  0  0
   -0.2624   -1.5695   32.2741 C   0  0  0  0  0  0  0  0  0  0  0  0
   -0.4100   -0.5650   33.1889 O   0  0  0  0  0  0  0  0  0  0  0  0
   -1.1142    0.3806   32.4999 C   0  0  0  0  0  0  0  0  0  0  0  0
   -1.4549    0.0585   31.2693 N   0  0  0  0  0  0  0  0  0  0  0  0
   -0.8349   -1.1566   31.0962 C   0  0  0  0  0  0  0  0  0  0  0  0
   -0.9008   -2.0737   29.9795 C   0  0  0  0  0  0  0  0  0  0  0  0
    0.1083   -2.3716   29.4097 O   0  0  0  0  0  0  0  0  0  0  0  0
   -2.2352   -2.5447   29.8202 N   0  0  0  0  0  0  0  0  0  0  0  0
   -2.7463   -3.5388   29.0359 C   0  0  0  0  0  0  0  0  0  0  0  0
   -1.6279   -4.7780   28.6936 C   0  0  0  0  0  0  0  0  0  0  0  0
   -2.1374   -6.5582   28.8391 N   0  0  0  0  0  0  0  0  0  0  0  0
   -3.8533   -7.1498   29.2594 C   0  0  0  0  0  0  0  0  0  0  0  0
   -4.4962   -7.8556   28.4216 O   0  0  0  0  0  0  0  0  0  0  0  0
   -5.3937   -5.5072   29.2227 C   0  0  0  0  0  0  0  0  0  0  0  0
   -6.3416   -5.4563   28.3397 C   0  0  0  0  0  0  0  0  0  0  0  0
   -7.3161   -4.1663   28.1740 C   0  0  0  0  0  0  0  0  0  0  0  0
   -6.7997   -2.9152   28.1050 C   0  0  0  0  0  0  0  0  0  0  0  0
   -5.4014   -2.9429   27.9878 C   0  0  0  0  0  0  0  0  0  0  0  0
   -4.7482   -3.8286   28.6496 C   0  0  0  0  0  0  0  0  0  0  0  0
   -0.2396   -4.5990   33.4348 H   0  0  0  0  0  0  0  0  0  0  0  0
   -1.1896   -3.3841   33.8791 H   0  0  0  0  0  0  0  0  0  0  0  0
    0.8056   -3.3457   31.7811 H   0  0  0  0  0  0  0  0  0  0  0  0
    0.8992   -2.0372   34.3521 H   0  0  0  0  0  0  0  0  0  0  0  0
    2.6076   -1.9839   32.4120 H   0  0  0  0  0  0  0  0  0  0  0  0
    3.0762   -1.9634   34.0902 H   0  0  0  0  0  0  0  0  0  0  0  0
    2.8084   -4.5794   32.4931 H   0  0  0  0  0  0  0  0  0  0  0  0
    4.2891   -3.6531   32.5679 H   0  0  0  0  0  0  0  0  0  0  0  0
    5.0515   -2.9731   35.0416 H   0  0  0  0  0  0  0  0  0  0  0  0
    5.6333   -3.9024   37.2273 H   0  0  0  0  0  0  0  0  0  0  0  0
    5.4098   -7.0930   38.1629 H   0  0  0  0  0  0  0  0  0  0  0  0
    0.4659   -8.3871   37.4807 H   0  0  0  0  0  0  0  0  0  0  0  0
   -0.9145   -8.0039   35.4953 H   0  0  0  0  0  0  0  0  0  0  0  0
   -1.6838   -5.7109   34.9483 H   0  0  0  0  0  0  0  0  0  0  0  0
   -1.1919   -3.8231   36.4798 H   0  0  0  0  0  0  0  0  0  0  0  0
    0.2318   -4.1854   38.4623 H   0  0  0  0  0  0  0  0  0  0  0  0
    2.6716   -4.7726   38.5454 H   0  0  0  0  0  0  0  0  0  0  0  0
    3.4372   -8.3994   36.8099 H   0  0  0  0  0  0  0  0  0  0  0  0
   -1.3426    1.2880   33.0408 H   0  0  0  0  0  0  0  0  0  0  0  0
   -2.8483   -2.0059   30.4195 H   0  0  0  0  0  0  0  0  0  0  0  0
   -0.5645   -4.6795   28.8906 H   0  0  0  0  0  0  0  0  0  0  0  0
   -1.7658   -7.0215   28.0130 H   0  0  0  0  0  0  0  0  0  0  0  0
   -6.5216   -6.3733   28.8593 H   0  0  0  0  0  0  0  0  0  0  0  0
   -8.2317   -4.3599   27.5999 H   0  0  0  0  0  0  0  0  0  0  0  0
   -7.4164   -2.1185   27.7017 H   0  0  0  0  0  0  0  0  0  0  0  0
   -4.6251   -2.4253   27.4450 H   0  0  0  0  0  0  0  0  0  0  0  0
  1  2  1  0
  2  3  1  0
  3  4  1  0
  4  5  1  0
  5  6  1  0
  6  7  2  0
  7  8  1  0
  8  9  2  0
  9 10  1  0
 10 11  1  0
 11 12  2  0
 12 13  1  0
 13 14  2  0
 14 15  1  0
 15 16  2  0
 16 17  1  0
 17 18  2  0
 18 19  1  0
 19 20  2  0
 14 21  1  0
  9 22  1  0
 22 23  1  0
 23 24  2  0
 24 25  1  0
 25 26  2  0
  2 27  1  0
 27 28  1  0
 28 29  1  0
 29 30  2  0
 30 31  1  0
 31 32  1  0
 32 33  2  0
 32 34  1  0
 34 35  1  0
 35 36  2  0
 36 37  1  0
 37 38  1  0
 38 39  2  0
 38 40  1  0
 40 41  2  0
 41 42  1  0
 42 43  2  0
 43 44  1  0
 44 45  2  0
 26  6  1  0
 31 27  2  0
 45 35  1  0
 21 11  1  0
 26 22  1  0
 45 40  1  0
 20 15  1  0
  1 46  1  0
  1 47  1  0
  2 48  1  0
  3 49  1  0
  4 50  1  0
  4 51  1  0
  5 52  1  0
  5 53  1  0
  7 54  1  0
  8 55  1  0
 10 56  1  0
 16 57  1  0
 17 58  1  0
 18 59  1  0
 19 60  1  0
 20 61  1  0
 21 62  1  0
 23 63  1  0
 29 64  1  0
 34 65  1  0
 36 66  1  0
 37 67  1  0
 41 68  1  0
 42 69  1  0
 43 70  1  0
 44 71  1  0
M  END
>  <Energy>  (811) 
782.70812847617776

>  <compound_id>  (811) 
4375

>  <target_id>  (811) 
1

>  <reference_id>  (811) 
153

>  <inspiration_ids>  (811) 
[153, 194]

>  <energy_score>  (811) 
658.3289258122012

>  <distance_score>  (811) 
2.6647377132595604

>  <path>  (811) 
/opt/xchem-fragalysis-2/maxwin/BulkDock/SCRATCH/505735/C4375-P153/C4375-P153.minimised.mol

>  <scratch_subdir>  (811) 
/opt/xchem-fragalysis-2/maxwin/BulkDock/SCRATCH/505735/C4375-P153

>  <fragmenstein_runtime>  (811) 
40.66411280632019

>  <fragmenstein_outcome>  (811) 
too moved

>  <fragmenstein_mode>  (811) 
expansion

>  <fragmenstein_error>  (811) 


$$$$
C4375-P194
     RDKit          3D

 71 77  0  0  0  0  0  0  0  0999 V2000
    2.4401   -0.4894   31.6503 N   0  0  0  0  0  0  0  0  0  0  0  0
    1.8429   -1.7577   31.9463 C   0  0  0  0  0  0  0  0  0  0  0  0
    2.5487   -2.1951   33.1217 N   0  0  0  0  0  0  0  0  0  0  0  0
    2.0370   -3.3943   33.7826 C   0  0  0  0  0  0  0  0  0  0  0  0
    2.5050   -4.7596   33.2259 C   0  0  0  0  0  0  0  0  0  0  0  0
    2.5110   -5.8168   34.3212 C   0  0  0  0  0  0  0  0  0  0  0  0
    1.3809   -6.4972   34.6285 C   0  0  0  0  0  0  0  0  0  0  0  0
    1.2806   -7.3482   35.8071 C   0  0  0  0  0  0  0  0  0  0  0  0
    2.3375   -7.4888   36.6414 C   0  0  0  0  0  0  0  0  0  0  0  0
    2.2391   -8.0133   37.9476 N   0  0  0  0  0  0  0  0  0  0  0  0
    1.5429   -7.2386   38.8370 C   0  0  0  0  0  0  0  0  0  0  0  0
    0.3698   -7.4776   39.3752 N   0  0  0  0  0  0  0  0  0  0  0  0
   -0.3090   -6.2743   39.3755 N   0  0  0  0  0  0  0  0  0  0  0  0
    0.5141   -5.3536   38.9070 C   0  0  0  0  0  0  0  0  0  0  0  0
    0.1965   -4.1499   38.1541 C   0  0  0  0  0  0  0  0  0  0  0  0
   -0.8474   -4.1994   37.2191 C   0  0  0  0  0  0  0  0  0  0  0  0
   -1.0885   -3.1271   36.3614 C   0  0  0  0  0  0  0  0  0  0  0  0
   -0.2902   -1.9904   36.4364 C   0  0  0  0  0  0  0  0  0  0  0  0
    0.7432   -1.9254   37.3703 C   0  0  0  0  0  0  0  0  0  0  0  0
    0.9904   -3.0016   38.2257 C   0  0  0  0  0  0  0  0  0  0  0  0
    1.7826   -5.8883   38.9262 N   0  0  0  0  0  0  0  0  0  0  0  0
    3.5423   -6.8914   36.2408 N   0  0  0  0  0  0  0  0  0  0  0  0
    4.7849   -6.9003   36.8130 C   0  0  0  0  0  0  0  0  0  0  0  0
    5.6189   -6.1877   36.0905 N   0  0  0  0  0  0  0  0  0  0  0  0
    4.9187   -5.6743   35.0227 N   0  0  0  0  0  0  0  0  0  0  0  0
    3.6737   -6.0882   35.1179 C   0  0  0  0  0  0  0  0  0  0  0  0
    2.0094   -2.6993   30.8200 C   0  0  0  0  0  0  0  0  0  0  0  0
    3.2418   -2.9581   30.2909 O   0  0  0  0  0  0  0  0  0  0  0  0
    3.0028   -3.9698   29.4115 C   0  0  0  0  0  0  0  0  0  0  0  0
    1.7668   -4.4285   29.3905 N   0  0  0  0  0  0  0  0  0  0  0  0
    1.1143   -3.5470   30.2214 C   0  0  0  0  0  0  0  0  0  0  0  0
   -0.2921   -3.5125   30.5378 C   0  0  0  0  0  0  0  0  0  0  0  0
   -0.8407   -2.4522   30.5143 O   0  0  0  0  0  0  0  0  0  0  0  0
   -0.7889   -4.8161   30.8541 N   0  0  0  0  0  0  0  0  0  0  0  0
   -2.0683   -5.2535   31.1368 C   0  0  0  0  0  0  0  0  0  0  0  0
   -2.3810   -6.8419   30.5039 C   0  0  0  0  0  0  0  0  0  0  0  0
   -3.8614   -7.1774   29.3553 N   0  0  0  0  0  0  0  0  0  0  0  0
   -5.4825   -5.8293   29.4473 C   0  0  0  0  0  0  0  0  0  0  0  0
   -6.1974   -5.6072   28.4608 O   0  0  0  0  0  0  0  0  0  0  0  0
   -5.1534   -4.2219   30.7076 C   0  0  0  0  0  0  0  0  0  0  0  0
   -6.0568   -3.3760   31.2340 C   0  0  0  0  0  0  0  0  0  0  0  0
   -5.6474   -2.5163   32.2940 C   0  0  0  0  0  0  0  0  0  0  0  0
   -4.2834   -2.2052   32.6475 C   0  0  0  0  0  0  0  0  0  0  0  0
   -3.1369   -2.7392   32.0289 C   0  0  0  0  0  0  0  0  0  0  0  0
   -3.3716   -3.7365   31.0839 C   0  0  0  0  0  0  0  0  0  0  0  0
    1.8831   -0.0157   30.9418 H   0  0  0  0  0  0  0  0  0  0  0  0
    2.3805    0.0755   32.4933 H   0  0  0  0  0  0  0  0  0  0  0  0
    0.7902   -1.5926   32.1944 H   0  0  0  0  0  0  0  0  0  0  0  0
    3.5352   -2.2864   32.8805 H   0  0  0  0  0  0  0  0  0  0  0  0
    2.3721   -3.3123   34.8243 H   0  0  0  0  0  0  0  0  0  0  0  0
    0.9410   -3.3708   33.8287 H   0  0  0  0  0  0  0  0  0  0  0  0
    1.8552   -5.0854   32.4085 H   0  0  0  0  0  0  0  0  0  0  0  0
    3.5160   -4.6777   32.8080 H   0  0  0  0  0  0  0  0  0  0  0  0
    0.4541   -6.3145   34.0880 H   0  0  0  0  0  0  0  0  0  0  0  0
    0.2926   -7.7100   36.0855 H   0  0  0  0  0  0  0  0  0  0  0  0
    1.7384   -8.9132   37.9276 H   0  0  0  0  0  0  0  0  0  0  0  0
   -1.4646   -5.0906   37.1441 H   0  0  0  0  0  0  0  0  0  0  0  0
   -1.8994   -3.1754   35.6400 H   0  0  0  0  0  0  0  0  0  0  0  0
   -0.4746   -1.1489   35.7731 H   0  0  0  0  0  0  0  0  0  0  0  0
    1.3618   -1.0323   37.4297 H   0  0  0  0  0  0  0  0  0  0  0  0
    1.8050   -2.9273   38.9420 H   0  0  0  0  0  0  0  0  0  0  0  0
    2.5847   -5.4332   38.5274 H   0  0  0  0  0  0  0  0  0  0  0  0
    5.0190   -7.4360   37.7221 H   0  0  0  0  0  0  0  0  0  0  0  0
    3.8553   -4.3166   28.8436 H   0  0  0  0  0  0  0  0  0  0  0  0
   -0.0558   -5.4987   30.6874 H   0  0  0  0  0  0  0  0  0  0  0  0
   -1.5173   -7.4216   30.1747 H   0  0  0  0  0  0  0  0  0  0  0  0
   -3.4245   -7.3391   28.4311 H   0  0  0  0  0  0  0  0  0  0  0  0
   -7.0448   -3.4115   30.8276 H   0  0  0  0  0  0  0  0  0  0  0  0
   -6.4293   -1.9454   32.8028 H   0  0  0  0  0  0  0  0  0  0  0  0
   -4.1323   -1.4933   33.4619 H   0  0  0  0  0  0  0  0  0  0  0  0
   -2.1611   -2.5233   32.4436 H   0  0  0  0  0  0  0  0  0  0  0  0
  1  2  1  0
  2  3  1  0
  3  4  1  0
  4  5  1  0
  5  6  1  0
  6  7  2  0
  7  8  1  0
  8  9  2  0
  9 10  1  0
 10 11  1  0
 11 12  2  0
 12 13  1  0
 13 14  2  0
 14 15  1  0
 15 16  2  0
 16 17  1  0
 17 18  2  0
 18 19  1  0
 19 20  2  0
 14 21  1  0
  9 22  1  0
 22 23  1  0
 23 24  2  0
 24 25  1  0
 25 26  2  0
  2 27  1  0
 27 28  1  0
 28 29  1  0
 29 30  2  0
 30 31  1  0
 31 32  1  0
 32 33  2  0
 32 34  1  0
 34 35  1  0
 35 36  2  0
 36 37  1  0
 37 38  1  0
 38 39  2  0
 38 40  1  0
 40 41  2  0
 41 42  1  0
 42 43  2  0
 43 44  1  0
 44 45  2  0
 26  6  1  0
 31 27  2  0
 45 35  1  0
 21 11  1  0
 26 22  1  0
 45 40  1  0
 20 15  1  0
  1 46  1  0
  1 47  1  0
  2 48  1  0
  3 49  1  0
  4 50  1  0
  4 51  1  0
  5 52  1  0
  5 53  1  0
  7 54  1  0
  8 55  1  0
 10 56  1  0
 16 57  1  0
 17 58  1  0
 18 59  1  0
 19 60  1  0
 20 61  1  0
 21 62  1  0
 23 63  1  0
 29 64  1  0
 34 65  1  0
 36 66  1  0
 37 67  1  0
 41 68  1  0
 42 69  1  0
 43 70  1  0
 44 71  1  0
M  END
>  <Energy>  (812) 
640.88339389630221

>  <compound_id>  (812) 
4375

>  <target_id>  (812) 
1

>  <reference_id>  (812) 
194

>  <inspiration_ids>  (812) 
[153, 194]

>  <energy_score>  (812) 
516.5041912323188

>  <distance_score>  (812) 
3.3380783397287157

>  <path>  (812) 
/opt/xchem-fragalysis-2/maxwin/BulkDock/SCRATCH/505735/C4375-P194/C4375-P194.minimised.mol

>  <scratch_subdir>  (812) 
/opt/xchem-fragalysis-2/maxwin/BulkDock/SCRATCH/505735/C4375-P194

>  <fragmenstein_runtime>  (812) 
36.943257331848145

>  <fragmenstein_outcome>  (812) 
too moved

>  <fragmenstein_mode>  (812) 
expansion

>  <fragmenstein_error>  (812) 


$$$$
C4379-P153
     RDKit          3D

 70 76  0  0  0  0  0  0  0  0999 V2000
    2.6828    0.9253   32.2965 C   0  0  0  0  0  0  0  0  0  0  0  0
    1.9399   -0.0882   32.7694 C   0  0  0  0  0  0  0  0  0  0  0  0
    1.5821   -1.2152   31.7990 C   0  0  0  0  0  0  0  0  0  0  0  0
    0.1684   -1.5649   31.7972 N   0  0  0  0  0  0  0  0  0  0  0  0
   -0.4386   -2.5278   32.5624 C   0  0  0  0  0  0  0  0  0  0  0  0
    0.4090   -3.5898   33.6467 S   0  0  0  0  0  0  0  0  0  0  0  0
    0.3223   -4.9641   32.5846 C   0  0  0  0  0  0  0  0  0  0  0  0
    0.9122   -4.9494   31.3699 C   0  0  0  0  0  0  0  0  0  0  0  0
    0.6945   -6.0460   30.4496 C   0  0  0  0  0  0  0  0  0  0  0  0
   -0.0600   -7.1065   30.7863 C   0  0  0  0  0  0  0  0  0  0  0  0
   -0.6219   -7.1707   32.0850 C   0  0  0  0  0  0  0  0  0  0  0  0
   -1.3268   -8.0946   32.6909 N   0  0  0  0  0  0  0  0  0  0  0  0
   -1.5810   -7.6521   33.9679 N   0  0  0  0  0  0  0  0  0  0  0  0
   -1.0496   -6.4590   34.0984 C   0  0  0  0  0  0  0  0  0  0  0  0
   -0.4155   -6.0980   32.9421 N   0  0  0  0  0  0  0  0  0  0  0  0
   -1.6919   -2.6672   32.2075 N   0  0  0  0  0  0  0  0  0  0  0  0
   -1.9138   -1.8177   31.1570 N   0  0  0  0  0  0  0  0  0  0  0  0
   -0.7912   -1.1747   30.8804 C   0  0  0  0  0  0  0  0  0  0  0  0
   -0.6037   -0.2761   29.7489 C   0  0  0  0  0  0  0  0  0  0  0  0
    0.0195    0.9662   29.8715 C   0  0  0  0  0  0  0  0  0  0  0  0
    0.1683    1.7903   28.7565 C   0  0  0  0  0  0  0  0  0  0  0  0
   -0.3573    1.3661   27.5533 C   0  0  0  0  0  0  0  0  0  0  0  0
   -0.9615    0.1763   27.3949 N   0  0  0  0  0  0  0  0  0  0  0  0
   -1.0720   -0.6203   28.4848 C   0  0  0  0  0  0  0  0  0  0  0  0
    1.4793   -0.1904   34.0785 N   0  0  0  0  0  0  0  0  0  0  0  0
    1.9849    0.4179   35.3026 C   0  0  0  0  0  0  0  0  0  0  0  0
    2.3158    1.8288   35.3458 N   0  0  0  0  0  0  0  0  0  0  0  0
    3.0353   -0.4084   35.9811 C   0  0  0  0  0  0  0  0  0  0  0  0
    2.5748   -1.2842   36.9407 O   0  0  0  0  0  0  0  0  0  0  0  0
    3.6861   -1.9110   37.4009 C   0  0  0  0  0  0  0  0  0  0  0  0
    4.8082   -1.5428   36.8302 N   0  0  0  0  0  0  0  0  0  0  0  0
    4.4083   -0.5682   35.9084 C   0  0  0  0  0  0  0  0  0  0  0  0
    5.3886    0.1069   35.0412 C   0  0  0  0  0  0  0  0  0  0  0  0
    5.0414    0.8854   34.2046 O   0  0  0  0  0  0  0  0  0  0  0  0
    6.6956   -0.3929   35.3741 N   0  0  0  0  0  0  0  0  0  0  0  0
    7.9357   -0.0593   34.8935 C   0  0  0  0  0  0  0  0  0  0  0  0
    8.1055    0.8903   33.9573 C   0  0  0  0  0  0  0  0  0  0  0  0
    9.3357    1.2306   33.4622 N   0  0  0  0  0  0  0  0  0  0  0  0
   10.5180    0.6548   33.8552 C   0  0  0  0  0  0  0  0  0  0  0  0
   11.5928    0.9950   33.3746 O   0  0  0  0  0  0  0  0  0  0  0  0
   10.4136   -0.4029   34.8920 C   0  0  0  0  0  0  0  0  0  0  0  0
   11.5869   -1.0290   35.3370 C   0  0  0  0  0  0  0  0  0  0  0  0
   11.5174   -2.0243   36.3070 C   0  0  0  0  0  0  0  0  0  0  0  0
   10.2803   -2.3909   36.8297 C   0  0  0  0  0  0  0  0  0  0  0  0
    9.1079   -1.7654   36.3848 C   0  0  0  0  0  0  0  0  0  0  0  0
    9.1486   -0.7570   35.4050 C   0  0  0  0  0  0  0  0  0  0  0  0
    2.9947    1.7587   32.9164 H   0  0  0  0  0  0  0  0  0  0  0  0
    3.0397    0.9562   31.2717 H   0  0  0  0  0  0  0  0  0  0  0  0
    2.1641   -2.1030   32.0662 H   0  0  0  0  0  0  0  0  0  0  0  0
    1.8701   -0.9822   30.7676 H   0  0  0  0  0  0  0  0  0  0  0  0
    1.5048   -4.1211   30.9998 H   0  0  0  0  0  0  0  0  0  0  0  0
    1.1557   -5.9670   29.4717 H   0  0  0  0  0  0  0  0  0  0  0  0
   -0.2257   -7.9372   30.1100 H   0  0  0  0  0  0  0  0  0  0  0  0
   -1.0967   -5.8387   34.9816 H   0  0  0  0  0  0  0  0  0  0  0  0
    0.3584    1.3314   30.8350 H   0  0  0  0  0  0  0  0  0  0  0  0
    0.6380    2.7652   28.8352 H   0  0  0  0  0  0  0  0  0  0  0  0
   -0.3138    1.9895   26.6655 H   0  0  0  0  0  0  0  0  0  0  0  0
   -1.5710   -1.5694   28.2942 H   0  0  0  0  0  0  0  0  0  0  0  0
    1.0754   -1.0994   34.2987 H   0  0  0  0  0  0  0  0  0  0  0  0
    1.1135    0.3554   35.9711 H   0  0  0  0  0  0  0  0  0  0  0  0
    2.3006    2.1468   36.3102 H   0  0  0  0  0  0  0  0  0  0  0  0
    1.5686    2.3180   34.8623 H   0  0  0  0  0  0  0  0  0  0  0  0
    3.5403   -2.6456   38.1818 H   0  0  0  0  0  0  0  0  0  0  0  0
    6.6037   -1.1082   36.0901 H   0  0  0  0  0  0  0  0  0  0  0  0
    7.2808    1.4520   33.5295 H   0  0  0  0  0  0  0  0  0  0  0  0
    9.4134    1.9549   32.7567 H   0  0  0  0  0  0  0  0  0  0  0  0
   12.5524   -0.7387   34.9266 H   0  0  0  0  0  0  0  0  0  0  0  0
   12.4256   -2.5108   36.6544 H   0  0  0  0  0  0  0  0  0  0  0  0
   10.2245   -3.1673   37.5904 H   0  0  0  0  0  0  0  0  0  0  0  0
    8.1747   -2.0932   36.8322 H   0  0  0  0  0  0  0  0  0  0  0  0
  1  2  2  0
  2  3  1  0
  3  4  1  0
  4  5  1  0
  5  6  1  0
  6  7  1  0
  7  8  2  0
  8  9  1  0
  9 10  2  0
 10 11  1  0
 11 12  2  0
 12 13  1  0
 13 14  2  0
 14 15  1  0
  5 16  2  0
 16 17  1  0
 17 18  2  0
 18 19  1  0
 19 20  2  0
 20 21  1  0
 21 22  2  0
 22 23  1  0
 23 24  2  0
  2 25  1  0
 25 26  1  0
 26 27  1  0
 26 28  1  0
 28 29  1  0
 29 30  1  0
 30 31  2  0
 31 32  1  0
 32 33  1  0
 33 34  2  0
 33 35  1  0
 35 36  1  0
 36 37  2  0
 37 38  1  0
 38 39  1  0
 39 40  2  0
 39 41  1  0
 41 42  2  0
 42 43  1  0
 43 44  2  0
 44 45  1  0
 45 46  2  0
 18  4  1  0
 24 19  1  0
 32 28  2  0
 46 36  1  0
 15  7  1  0
 46 41  1  0
 15 11  1  0
  1 47  1  0
  1 48  1  0
  3 49  1  0
  3 50  1  0
  8 51  1  0
  9 52  1  0
 10 53  1  0
 14 54  1  0
 20 55  1  0
 21 56  1  0
 22 57  1  0
 24 58  1  0
 25 59  1  0
 26 60  1  0
 27 61  1  0
 27 62  1  0
 30 63  1  0
 35 64  1  0
 37 65  1  0
 38 66  1  0
 42 67  1  0
 43 68  1  0
 44 69  1  0
 45 70  1  0
M  END
>  <Energy>  (813) 
73.01339037441241

>  <compound_id>  (813) 
4379

>  <target_id>  (813) 
1

>  <reference_id>  (813) 
153

>  <inspiration_ids>  (813) 
[153, 198]

>  <energy_score>  (813) 
-111.29730380384063

>  <distance_score>  (813) 
1.6303879215700263

>  <path>  (813) 
/opt/xchem-fragalysis-2/maxwin/BulkDock/SCRATCH/505735/C4379-P153/C4379-P153.minimised.mol

>  <scratch_subdir>  (813) 
/opt/xchem-fragalysis-2/maxwin/BulkDock/SCRATCH/505735/C4379-P153

>  <fragmenstein_runtime>  (813) 
12.39560341835022

>  <fragmenstein_outcome>  (813) 
too moved

>  <fragmenstein_mode>  (813) 
expansion

>  <fragmenstein_error>  (813) 


$$$$
C4379-P198
     RDKit          3D

 70 76  0  0  0  0  0  0  0  0999 V2000
    2.6908    0.4719   30.3916 C   0  0  0  0  0  0  0  0  0  0  0  0
    2.2379   -0.5869   31.0843 C   0  0  0  0  0  0  0  0  0  0  0  0
    1.5548   -1.7130   30.3130 C   0  0  0  0  0  0  0  0  0  0  0  0
    0.2184   -2.0300   30.7925 N   0  0  0  0  0  0  0  0  0  0  0  0
   -0.1343   -2.9960   31.6939 C   0  0  0  0  0  0  0  0  0  0  0  0
    0.9993   -3.9026   32.6448 S   0  0  0  0  0  0  0  0  0  0  0  0
    0.2660   -5.4495   32.3835 C   0  0  0  0  0  0  0  0  0  0  0  0
    0.3658   -6.0736   31.1899 C   0  0  0  0  0  0  0  0  0  0  0  0
   -0.3036   -7.3467   30.9877 C   0  0  0  0  0  0  0  0  0  0  0  0
   -1.0268   -7.9164   31.9668 C   0  0  0  0  0  0  0  0  0  0  0  0
   -1.1132   -7.2858   33.2335 C   0  0  0  0  0  0  0  0  0  0  0  0
   -1.7135   -7.6251   34.3514 N   0  0  0  0  0  0  0  0  0  0  0  0
   -1.4413   -6.6635   35.2873 N   0  0  0  0  0  0  0  0  0  0  0  0
   -0.7204   -5.7327   34.7039 C   0  0  0  0  0  0  0  0  0  0  0  0
   -0.4657   -6.0727   33.4019 N   0  0  0  0  0  0  0  0  0  0  0  0
   -1.4358   -3.1620   31.6902 N   0  0  0  0  0  0  0  0  0  0  0  0
   -1.9608   -2.2664   30.7939 N   0  0  0  0  0  0  0  0  0  0  0  0
   -0.9712   -1.5616   30.2720 C   0  0  0  0  0  0  0  0  0  0  0  0
   -1.1102   -0.4774   29.3131 C   0  0  0  0  0  0  0  0  0  0  0  0
   -0.6809    0.8169   29.6143 C   0  0  0  0  0  0  0  0  0  0  0  0
   -0.8771    1.8498   28.6987 C   0  0  0  0  0  0  0  0  0  0  0  0
   -1.5161    1.5584   27.5098 C   0  0  0  0  0  0  0  0  0  0  0  0
   -1.9217    0.3195   27.1747 N   0  0  0  0  0  0  0  0  0  0  0  0
   -1.7178   -0.6712   28.0800 C   0  0  0  0  0  0  0  0  0  0  0  0
    2.3792   -0.7474   32.4623 N   0  0  0  0  0  0  0  0  0  0  0  0
    3.2473   -0.0123   33.3781 C   0  0  0  0  0  0  0  0  0  0  0  0
    3.0747    1.4318   33.4237 N   0  0  0  0  0  0  0  0  0  0  0  0
    4.7076   -0.3521   33.2683 C   0  0  0  0  0  0  0  0  0  0  0  0
    5.1376   -1.1371   32.2236 O   0  0  0  0  0  0  0  0  0  0  0  0
    6.4802   -1.2371   32.4065 C   0  0  0  0  0  0  0  0  0  0  0  0
    6.9507   -0.6282   33.4716 N   0  0  0  0  0  0  0  0  0  0  0  0
    5.8166   -0.0561   34.0387 C   0  0  0  0  0  0  0  0  0  0  0  0
    5.8512    0.7392   35.2707 C   0  0  0  0  0  0  0  0  0  0  0  0
    4.8379    1.1804   35.7341 O   0  0  0  0  0  0  0  0  0  0  0  0
    7.2110    0.8421   35.7195 N   0  0  0  0  0  0  0  0  0  0  0  0
    7.7659    1.5472   36.7575 C   0  0  0  0  0  0  0  0  0  0  0  0
    7.0173    2.2209   37.6478 C   0  0  0  0  0  0  0  0  0  0  0  0
    7.5611    2.9345   38.6821 N   0  0  0  0  0  0  0  0  0  0  0  0
    8.9073    3.0478   38.9258 C   0  0  0  0  0  0  0  0  0  0  0  0
    9.3403    3.7076   39.8633 O   0  0  0  0  0  0  0  0  0  0  0  0
    9.8018    2.3235   37.9883 C   0  0  0  0  0  0  0  0  0  0  0  0
   11.1882    2.3947   38.1884 C   0  0  0  0  0  0  0  0  0  0  0  0
   12.0487    1.7190   37.3287 C   0  0  0  0  0  0  0  0  0  0  0  0
   11.5249    0.9742   36.2759 C   0  0  0  0  0  0  0  0  0  0  0  0
   10.1399    0.9035   36.0758 C   0  0  0  0  0  0  0  0  0  0  0  0
    9.2466    1.5803   36.9262 C   0  0  0  0  0  0  0  0  0  0  0  0
    3.1998    1.3032   30.8676 H   0  0  0  0  0  0  0  0  0  0  0  0
    2.5685    0.5525   29.3154 H   0  0  0  0  0  0  0  0  0  0  0  0
    2.1660   -2.6208   30.3721 H   0  0  0  0  0  0  0  0  0  0  0  0
    1.4728   -1.4866   29.2428 H   0  0  0  0  0  0  0  0  0  0  0  0
    0.9004   -5.6490   30.3460 H   0  0  0  0  0  0  0  0  0  0  0  0
   -0.2061   -7.8341   30.0236 H   0  0  0  0  0  0  0  0  0  0  0  0
   -1.5342   -8.8632   31.8317 H   0  0  0  0  0  0  0  0  0  0  0  0
   -0.3796   -4.8188   35.1672 H   0  0  0  0  0  0  0  0  0  0  0  0
   -0.2270    1.0432   30.5755 H   0  0  0  0  0  0  0  0  0  0  0  0
   -0.5772    2.8683   28.9231 H   0  0  0  0  0  0  0  0  0  0  0  0
   -1.7348    2.3349   26.7822 H   0  0  0  0  0  0  0  0  0  0  0  0
   -2.0897   -1.6462   27.7718 H   0  0  0  0  0  0  0  0  0  0  0  0
    2.2934   -1.7168   32.7599 H   0  0  0  0  0  0  0  0  0  0  0  0
    2.9442   -0.3709   34.3716 H   0  0  0  0  0  0  0  0  0  0  0  0
    3.4371    1.7592   34.3232 H   0  0  0  0  0  0  0  0  0  0  0  0
    2.0719    1.5959   33.4512 H   0  0  0  0  0  0  0  0  0  0  0  0
    7.0264   -1.8067   31.6672 H   0  0  0  0  0  0  0  0  0  0  0  0
    7.8204    0.4108   35.0294 H   0  0  0  0  0  0  0  0  0  0  0  0
    5.9333    2.2482   37.6083 H   0  0  0  0  0  0  0  0  0  0  0  0
    6.9568    3.4305   39.3278 H   0  0  0  0  0  0  0  0  0  0  0  0
   11.5939    2.9760   39.0145 H   0  0  0  0  0  0  0  0  0  0  0  0
   13.1239    1.7720   37.4812 H   0  0  0  0  0  0  0  0  0  0  0  0
   12.1965    0.4426   35.6046 H   0  0  0  0  0  0  0  0  0  0  0  0
    9.7950    0.3025   35.2399 H   0  0  0  0  0  0  0  0  0  0  0  0
  1  2  2  0
  2  3  1  0
  3  4  1  0
  4  5  1  0
  5  6  1  0
  6  7  1  0
  7  8  2  0
  8  9  1  0
  9 10  2  0
 10 11  1  0
 11 12  2  0
 12 13  1  0
 13 14  2  0
 14 15  1  0
  5 16  2  0
 16 17  1  0
 17 18  2  0
 18 19  1  0
 19 20  2  0
 20 21  1  0
 21 22  2  0
 22 23  1  0
 23 24  2  0
  2 25  1  0
 25 26  1  0
 26 27  1  0
 26 28  1  0
 28 29  1  0
 29 30  1  0
 30 31  2  0
 31 32  1  0
 32 33  1  0
 33 34  2  0
 33 35  1  0
 35 36  1  0
 36 37  2  0
 37 38  1  0
 38 39  1  0
 39 40  2  0
 39 41  1  0
 41 42  2  0
 42 43  1  0
 43 44  2  0
 44 45  1  0
 45 46  2  0
 18  4  1  0
 24 19  1  0
 32 28  2  0
 46 36  1  0
 15  7  1  0
 46 41  1  0
 15 11  1  0
  1 47  1  0
  1 48  1  0
  3 49  1  0
  3 50  1  0
  8 51  1  0
  9 52  1  0
 10 53  1  0
 14 54  1  0
 20 55  1  0
 21 56  1  0
 22 57  1  0
 24 58  1  0
 25 59  1  0
 26 60  1  0
 27 61  1  0
 27 62  1  0
 30 63  1  0
 35 64  1  0
 37 65  1  0
 38 66  1  0
 42 67  1  0
 43 68  1  0
 44 69  1  0
 45 70  1  0
M  END
>  <Energy>  (814) 
62.433262358868852

>  <compound_id>  (814) 
4379

>  <target_id>  (814) 
1

>  <reference_id>  (814) 
198

>  <inspiration_ids>  (814) 
[153, 198]

>  <energy_score>  (814) 
-121.8774318193864

>  <distance_score>  (814) 
2.0315116082849114

>  <path>  (814) 
/opt/xchem-fragalysis-2/maxwin/BulkDock/SCRATCH/505735/C4379-P198/C4379-P198.minimised.mol

>  <scratch_subdir>  (814) 
/opt/xchem-fragalysis-2/maxwin/BulkDock/SCRATCH/505735/C4379-P198

>  <fragmenstein_runtime>  (814) 
12.633393287658691

>  <fragmenstein_outcome>  (814) 
too moved

>  <fragmenstein_mode>  (814) 
expansion

>  <fragmenstein_error>  (814) 


$$$$
C4383-P154
     RDKit          3D

 64 68  0  0  0  0  0  0  0  0999 V2000
    1.3696   -3.7462   25.5057 N   0  0  0  0  0  0  0  0  0  0  0  0
    2.1107   -3.3605   26.6676 C   0  0  0  0  0  0  0  0  0  0  0  0
    1.3365   -2.3802   27.3796 N   0  0  0  0  0  0  0  0  0  0  0  0
    0.3472   -2.9431   28.2652 C   0  0  0  0  0  0  0  0  0  0  0  0
   -0.0237   -1.9699   29.4005 C   0  0  0  0  0  0  0  0  0  0  0  0
   -0.2999   -0.5182   28.9991 C   0  0  0  0  0  0  0  0  0  0  0  0
    0.9378    0.2597   28.6107 C   0  0  0  0  0  0  0  0  0  0  0  0
    2.1023   -0.0592   29.0838 N   0  0  0  0  0  0  0  0  0  0  0  0
    3.1673    0.7001   28.6743 C   0  0  0  0  0  0  0  0  0  0  0  0
    3.0957    1.7204   27.8156 C   0  0  0  0  0  0  0  0  0  0  0  0
    1.7719    2.0609   27.2804 C   0  0  0  0  0  0  0  0  0  0  0  0
    1.6216    2.9300   26.4304 O   0  0  0  0  0  0  0  0  0  0  0  0
    0.7368    1.3266   27.7798 N   0  0  0  0  0  0  0  0  0  0  0  0
   -1.2591   -2.4901   30.0202 N   0  0  0  0  0  0  0  0  0  0  0  0
   -1.1745   -2.9259   31.6291 S   0  0  0  0  0  0  0  0  0  0  0  0
    0.0887   -3.5794   31.8677 O   0  0  0  0  0  0  0  0  0  0  0  0
   -2.4325   -3.5964   31.8687 O   0  0  0  0  0  0  0  0  0  0  0  0
   -1.2523   -1.4384   32.5472 C   0  0  0  0  0  0  0  0  0  0  0  0
   -2.2967   -0.6229   32.9387 C   0  0  0  0  0  0  0  0  0  0  0  0
   -1.8022    0.4737   33.6956 C   0  0  0  0  0  0  0  0  0  0  0  0
   -0.4828    0.5651   33.8305 N   0  0  0  0  0  0  0  0  0  0  0  0
    0.2085   -0.7559   33.0917 S   0  0  0  0  0  0  0  0  0  0  0  0
    3.3786   -2.7211   26.2835 C   0  0  0  0  0  0  0  0  0  0  0  0
    3.3357   -1.5237   25.6313 O   0  0  0  0  0  0  0  0  0  0  0  0
    4.6410   -1.2112   25.4614 C   0  0  0  0  0  0  0  0  0  0  0  0
    5.5021   -2.0739   25.9548 N   0  0  0  0  0  0  0  0  0  0  0  0
    4.6929   -3.0405   26.5021 C   0  0  0  0  0  0  0  0  0  0  0  0
    5.1446   -4.2377   27.1772 C   0  0  0  0  0  0  0  0  0  0  0  0
    4.7291   -4.5355   28.2265 O   0  0  0  0  0  0  0  0  0  0  0  0
    6.1145   -4.9800   26.2403 N   0  0  0  0  0  0  0  0  0  0  0  0
    6.6712   -6.2130   26.3448 C   0  0  0  0  0  0  0  0  0  0  0  0
    6.6696   -7.0104   25.2679 C   0  0  0  0  0  0  0  0  0  0  0  0
    7.1150   -8.3020   25.3152 N   0  0  0  0  0  0  0  0  0  0  0  0
    7.6400   -8.8970   26.4356 C   0  0  0  0  0  0  0  0  0  0  0  0
    8.0164  -10.0628   26.4395 O   0  0  0  0  0  0  0  0  0  0  0  0
    7.7341   -8.0340   27.6447 C   0  0  0  0  0  0  0  0  0  0  0  0
    8.3566   -8.5323   28.7925 C   0  0  0  0  0  0  0  0  0  0  0  0
    8.4880   -7.7286   29.9243 C   0  0  0  0  0  0  0  0  0  0  0  0
    8.0131   -6.4237   29.9037 C   0  0  0  0  0  0  0  0  0  0  0  0
    7.4142   -5.9195   28.7484 C   0  0  0  0  0  0  0  0  0  0  0  0
    7.2398   -6.7199   27.6074 C   0  0  0  0  0  0  0  0  0  0  0  0
    1.1159   -2.8839   25.0078 H   0  0  0  0  0  0  0  0  0  0  0  0
    0.4791   -4.1116   25.8212 H   0  0  0  0  0  0  0  0  0  0  0  0
    2.3223   -4.2404   27.2834 H   0  0  0  0  0  0  0  0  0  0  0  0
    2.0071   -1.8416   27.9414 H   0  0  0  0  0  0  0  0  0  0  0  0
   -0.5415   -3.2079   27.6864 H   0  0  0  0  0  0  0  0  0  0  0  0
    0.7014   -3.8691   28.7371 H   0  0  0  0  0  0  0  0  0  0  0  0
    0.8011   -1.9725   30.1221 H   0  0  0  0  0  0  0  0  0  0  0  0
   -1.0635   -0.4668   28.2273 H   0  0  0  0  0  0  0  0  0  0  0  0
   -0.7235    0.0207   29.8580 H   0  0  0  0  0  0  0  0  0  0  0  0
    4.1321    0.4139   29.0875 H   0  0  0  0  0  0  0  0  0  0  0  0
    3.9499    2.2966   27.4939 H   0  0  0  0  0  0  0  0  0  0  0  0
   -0.1752    1.5536   27.4170 H   0  0  0  0  0  0  0  0  0  0  0  0
   -1.8025   -3.1405   29.4498 H   0  0  0  0  0  0  0  0  0  0  0  0
   -3.3375   -0.8346   32.7341 H   0  0  0  0  0  0  0  0  0  0  0  0
   -2.3991    1.2454   34.1655 H   0  0  0  0  0  0  0  0  0  0  0  0
    4.8358   -0.2938   24.9344 H   0  0  0  0  0  0  0  0  0  0  0  0
    6.1974   -4.4686   25.3624 H   0  0  0  0  0  0  0  0  0  0  0  0
    6.2384   -6.7091   24.3165 H   0  0  0  0  0  0  0  0  0  0  0  0
    6.9073   -8.9008   24.5121 H   0  0  0  0  0  0  0  0  0  0  0  0
    8.7521   -9.5441   28.7870 H   0  0  0  0  0  0  0  0  0  0  0  0
    8.9787   -8.1098   30.8153 H   0  0  0  0  0  0  0  0  0  0  0  0
    8.1314   -5.7849   30.7752 H   0  0  0  0  0  0  0  0  0  0  0  0
    7.1191   -4.8753   28.7544 H   0  0  0  0  0  0  0  0  0  0  0  0
  1  2  1  0
  2  3  1  0
  3  4  1  0
  4  5  1  0
  5  6  1  0
  6  7  1  0
  7  8  2  0
  8  9  1  0
  9 10  2  0
 10 11  1  0
 11 12  2  0
 11 13  1  0
  5 14  1  0
 14 15  1  0
 15 16  2  0
 15 17  2  0
 15 18  1  0
 18 19  2  0
 19 20  1  0
 20 21  2  0
 21 22  1  0
  2 23  1  0
 23 24  1  0
 24 25  1  0
 25 26  2  0
 26 27  1  0
 27 28  1  0
 28 29  2  0
 28 30  1  0
 30 31  1  0
 31 32  2  0
 32 33  1  0
 33 34  1  0
 34 35  2  0
 34 36  1  0
 36 37  2  0
 37 38  1  0
 38 39  2  0
 39 40  1  0
 40 41  2  0
 13  7  1  0
 22 18  1  0
 27 23  2  0
 41 31  1  0
 41 36  1  0
  1 42  1  0
  1 43  1  0
  2 44  1  0
  3 45  1  0
  4 46  1  0
  4 47  1  0
  5 48  1  0
  6 49  1  0
  6 50  1  0
  9 51  1  0
 10 52  1  0
 13 53  1  0
 14 54  1  0
 19 55  1  0
 20 56  1  0
 25 57  1  0
 30 58  1  0
 32 59  1  0
 33 60  1  0
 37 61  1  0
 38 62  1  0
 39 63  1  0
 40 64  1  0
M  END
>  <Energy>  (815) 
-98.231913836482875

>  <compound_id>  (815) 
4383

>  <target_id>  (815) 
1

>  <reference_id>  (815) 
154

>  <inspiration_ids>  (815) 
[154, 13]

>  <energy_score>  (815) 
-101.64999722277753

>  <distance_score>  (815) 
0.8375837817344417

>  <path>  (815) 
/opt/xchem-fragalysis-2/maxwin/BulkDock/SCRATCH/505735/C4383-P154/C4383-P154.minimised.mol

>  <scratch_subdir>  (815) 
/opt/xchem-fragalysis-2/maxwin/BulkDock/SCRATCH/505735/C4383-P154

>  <fragmenstein_runtime>  (815) 
8.793677568435669

>  <fragmenstein_outcome>  (815) 
acceptable

>  <fragmenstein_mode>  (815) 
expansion

>  <fragmenstein_error>  (815) 


$$$$
C4383-P13
     RDKit          3D

 64 68  0  0  0  0  0  0  0  0999 V2000
    2.6799   -4.3385   27.0804 N   0  0  0  0  0  0  0  0  0  0  0  0
    2.9033   -3.1424   27.8643 C   0  0  0  0  0  0  0  0  0  0  0  0
    1.6999   -2.3692   27.8525 N   0  0  0  0  0  0  0  0  0  0  0  0
    0.6490   -2.8674   28.7132 C   0  0  0  0  0  0  0  0  0  0  0  0
   -0.1925   -1.7397   29.3365 C   0  0  0  0  0  0  0  0  0  0  0  0
   -0.7025   -0.6843   28.3550 C   0  0  0  0  0  0  0  0  0  0  0  0
    0.2840    0.4350   28.1071 C   0  0  0  0  0  0  0  0  0  0  0  0
    1.4445    0.4756   28.6847 N   0  0  0  0  0  0  0  0  0  0  0  0
    2.2427    1.5512   28.3920 C   0  0  0  0  0  0  0  0  0  0  0  0
    1.9355    2.5238   27.5293 C   0  0  0  0  0  0  0  0  0  0  0  0
    0.6439    2.4297   26.8378 C   0  0  0  0  0  0  0  0  0  0  0  0
    0.3428    3.1866   25.9234 O   0  0  0  0  0  0  0  0  0  0  0  0
   -0.1554    1.4039   27.2471 N   0  0  0  0  0  0  0  0  0  0  0  0
   -1.3704   -2.3577   29.9718 N   0  0  0  0  0  0  0  0  0  0  0  0
   -1.2211   -2.8241   31.5672 S   0  0  0  0  0  0  0  0  0  0  0  0
    0.1135   -3.3179   31.8057 O   0  0  0  0  0  0  0  0  0  0  0  0
   -2.3801   -3.6536   31.8028 O   0  0  0  0  0  0  0  0  0  0  0  0
   -1.4760   -1.4053   32.5604 C   0  0  0  0  0  0  0  0  0  0  0  0
   -2.5942   -0.8641   33.1635 C   0  0  0  0  0  0  0  0  0  0  0  0
   -2.2359    0.2781   33.9292 C   0  0  0  0  0  0  0  0  0  0  0  0
   -0.9648    0.6643   33.8699 N   0  0  0  0  0  0  0  0  0  0  0  0
   -0.1323   -0.4304   32.9340 S   0  0  0  0  0  0  0  0  0  0  0  0
    4.0211   -2.3676   27.2683 C   0  0  0  0  0  0  0  0  0  0  0  0
    3.7991   -1.1881   26.6139 O   0  0  0  0  0  0  0  0  0  0  0  0
    5.0155   -0.8865   26.0858 C   0  0  0  0  0  0  0  0  0  0  0  0
    5.9780   -1.7414   26.3627 N   0  0  0  0  0  0  0  0  0  0  0  0
    5.3563   -2.6678   27.1613 C   0  0  0  0  0  0  0  0  0  0  0  0
    5.8781   -3.9027   27.7093 C   0  0  0  0  0  0  0  0  0  0  0  0
    5.7516   -4.1354   28.8467 O   0  0  0  0  0  0  0  0  0  0  0  0
    6.4563   -4.7667   26.5702 N   0  0  0  0  0  0  0  0  0  0  0  0
    6.8890   -6.0612   26.5711 C   0  0  0  0  0  0  0  0  0  0  0  0
    6.6304   -6.8154   25.4901 C   0  0  0  0  0  0  0  0  0  0  0  0
    6.8924   -8.1570   25.4438 N   0  0  0  0  0  0  0  0  0  0  0  0
    7.3976   -8.8817   26.4937 C   0  0  0  0  0  0  0  0  0  0  0  0
    7.6341  -10.0806   26.4105 O   0  0  0  0  0  0  0  0  0  0  0  0
    7.6597   -8.1158   27.7382 C   0  0  0  0  0  0  0  0  0  0  0  0
    8.1300   -8.7987   28.8639 C   0  0  0  0  0  0  0  0  0  0  0  0
    8.4549   -8.0963   30.0208 C   0  0  0  0  0  0  0  0  0  0  0  0
    8.3591   -6.7113   30.0309 C   0  0  0  0  0  0  0  0  0  0  0  0
    7.9038   -6.0346   28.8977 C   0  0  0  0  0  0  0  0  0  0  0  0
    7.4735   -6.7237   27.7558 C   0  0  0  0  0  0  0  0  0  0  0  0
    1.7414   -4.6638   27.2645 H   0  0  0  0  0  0  0  0  0  0  0  0
    2.8395   -4.1141   26.1078 H   0  0  0  0  0  0  0  0  0  0  0  0
    3.1819   -3.4116   28.8898 H   0  0  0  0  0  0  0  0  0  0  0  0
    1.9629   -1.4175   28.1415 H   0  0  0  0  0  0  0  0  0  0  0  0
   -0.0054   -3.5259   28.1323 H   0  0  0  0  0  0  0  0  0  0  0  0
    1.0591   -3.4844   29.5200 H   0  0  0  0  0  0  0  0  0  0  0  0
    0.4073   -1.2425   30.1054 H   0  0  0  0  0  0  0  0  0  0  0  0
   -0.9974   -1.1327   27.4027 H   0  0  0  0  0  0  0  0  0  0  0  0
   -1.6065   -0.2055   28.7577 H   0  0  0  0  0  0  0  0  0  0  0  0
    3.1962    1.5817   28.9141 H   0  0  0  0  0  0  0  0  0  0  0  0
    2.5846    3.3563   27.3023 H   0  0  0  0  0  0  0  0  0  0  0  0
   -1.0437    1.3146   26.7749 H   0  0  0  0  0  0  0  0  0  0  0  0
   -1.8984   -3.0046   29.3779 H   0  0  0  0  0  0  0  0  0  0  0  0
   -3.5804   -1.3071   33.1104 H   0  0  0  0  0  0  0  0  0  0  0  0
   -2.9031    0.8676   34.5464 H   0  0  0  0  0  0  0  0  0  0  0  0
    5.0669    0.0099   25.4829 H   0  0  0  0  0  0  0  0  0  0  0  0
    6.3374   -4.2797   25.6785 H   0  0  0  0  0  0  0  0  0  0  0  0
    6.1322   -6.4210   24.6072 H   0  0  0  0  0  0  0  0  0  0  0  0
    6.5743   -8.6917   24.6275 H   0  0  0  0  0  0  0  0  0  0  0  0
    8.2386   -9.8790   28.8241 H   0  0  0  0  0  0  0  0  0  0  0  0
    8.8093   -8.6226   30.9023 H   0  0  0  0  0  0  0  0  0  0  0  0
    8.6515   -6.1493   30.9145 H   0  0  0  0  0  0  0  0  0  0  0  0
    7.9099   -4.9502   28.9343 H   0  0  0  0  0  0  0  0  0  0  0  0
  1  2  1  0
  2  3  1  0
  3  4  1  0
  4  5  1  0
  5  6  1  0
  6  7  1  0
  7  8  2  0
  8  9  1  0
  9 10  2  0
 10 11  1  0
 11 12  2  0
 11 13  1  0
  5 14  1  0
 14 15  1  0
 15 16  2  0
 15 17  2  0
 15 18  1  0
 18 19  2  0
 19 20  1  0
 20 21  2  0
 21 22  1  0
  2 23  1  0
 23 24  1  0
 24 25  1  0
 25 26  2  0
 26 27  1  0
 27 28  1  0
 28 29  2  0
 28 30  1  0
 30 31  1  0
 31 32  2  0
 32 33  1  0
 33 34  1  0
 34 35  2  0
 34 36  1  0
 36 37  2  0
 37 38  1  0
 38 39  2  0
 39 40  1  0
 40 41  2  0
 13  7  1  0
 22 18  1  0
 27 23  2  0
 41 31  1  0
 41 36  1  0
  1 42  1  0
  1 43  1  0
  2 44  1  0
  3 45  1  0
  4 46  1  0
  4 47  1  0
  5 48  1  0
  6 49  1  0
  6 50  1  0
  9 51  1  0
 10 52  1  0
 13 53  1  0
 14 54  1  0
 19 55  1  0
 20 56  1  0
 25 57  1  0
 30 58  1  0
 32 59  1  0
 33 60  1  0
 37 61  1  0
 38 62  1  0
 39 63  1  0
 40 64  1  0
M  END
>  <Energy>  (816) 
-94.42213019772538

>  <compound_id>  (816) 
4383

>  <target_id>  (816) 
1

>  <reference_id>  (816) 
13

>  <inspiration_ids>  (816) 
[154, 13]

>  <energy_score>  (816) 
-97.84021358402202

>  <distance_score>  (816) 
1.249640894471181

>  <path>  (816) 
/opt/xchem-fragalysis-2/maxwin/BulkDock/SCRATCH/505735/C4383-P13/C4383-P13.minimised.mol

>  <scratch_subdir>  (816) 
/opt/xchem-fragalysis-2/maxwin/BulkDock/SCRATCH/505735/C4383-P13

>  <fragmenstein_runtime>  (816) 
8.101466655731201

>  <fragmenstein_outcome>  (816) 
too moved

>  <fragmenstein_mode>  (816) 
expansion

>  <fragmenstein_error>  (816) 


$$$$
C4383-P154
     RDKit          3D

 64 68  0  0  0  0  0  0  0  0999 V2000
    0.8303   -2.0438   27.6641 N   0  0  0  0  0  0  0  0  0  0  0  0
    1.6785   -0.9757   28.1285 C   0  0  0  0  0  0  0  0  0  0  0  0
    1.0840    0.2307   27.5847 N   0  0  0  0  0  0  0  0  0  0  0  0
    0.1786    1.0561   28.3891 C   0  0  0  0  0  0  0  0  0  0  0  0
   -1.2834    0.5509   28.5815 C   0  0  0  0  0  0  0  0  0  0  0  0
   -1.5392    0.2660   30.0859 C   0  0  0  0  0  0  0  0  0  0  0  0
   -0.8166   -0.9337   30.6885 C   0  0  0  0  0  0  0  0  0  0  0  0
    0.2815   -0.7496   31.3515 N   0  0  0  0  0  0  0  0  0  0  0  0
    0.8590   -1.8548   31.9237 C   0  0  0  0  0  0  0  0  0  0  0  0
    0.3305   -3.0802   31.9345 C   0  0  0  0  0  0  0  0  0  0  0  0
   -0.9622   -3.2520   31.2673 C   0  0  0  0  0  0  0  0  0  0  0  0
   -1.6008   -4.2924   31.3822 O   0  0  0  0  0  0  0  0  0  0  0  0
   -1.4053   -2.1633   30.5646 N   0  0  0  0  0  0  0  0  0  0  0  0
   -2.3829    1.5317   28.0748 N   0  0  0  0  0  0  0  0  0  0  0  0
   -2.8309    2.0704   26.4811 S   0  0  0  0  0  0  0  0  0  0  0  0
   -1.6655    2.7807   26.0008 O   0  0  0  0  0  0  0  0  0  0  0  0
   -4.1269    2.6943   26.5409 O   0  0  0  0  0  0  0  0  0  0  0  0
   -3.0909    0.7199   25.1888 C   0  0  0  0  0  0  0  0  0  0  0  0
   -3.5369   -1.0788   24.9190 C   0  0  0  0  0  0  0  0  0  0  0  0
   -2.8187   -1.7990   23.1282 C   0  0  0  0  0  0  0  0  0  0  0  0
   -2.3886   -0.4142   22.1046 N   0  0  0  0  0  0  0  0  0  0  0  0
   -2.1333    1.6420   23.2485 S   0  0  0  0  0  0  0  0  0  0  0  0
    3.1145   -1.1005   27.6969 C   0  0  0  0  0  0  0  0  0  0  0  0
    3.8198    0.0887   27.6954 O   0  0  0  0  0  0  0  0  0  0  0  0
    5.0899   -0.2469   27.3795 C   0  0  0  0  0  0  0  0  0  0  0  0
    5.3022   -1.5296   27.2375 N   0  0  0  0  0  0  0  0  0  0  0  0
    4.0300   -2.0958   27.3694 C   0  0  0  0  0  0  0  0  0  0  0  0
    3.8739   -3.5520   27.1899 C   0  0  0  0  0  0  0  0  0  0  0  0
    2.8065   -4.0423   26.9571 O   0  0  0  0  0  0  0  0  0  0  0  0
    5.1818   -4.1510   27.3020 N   0  0  0  0  0  0  0  0  0  0  0  0
    5.6050   -5.4384   27.0873 C   0  0  0  0  0  0  0  0  0  0  0  0
    5.0612   -6.2639   26.1772 C   0  0  0  0  0  0  0  0  0  0  0  0
    5.6481   -7.4613   25.8273 N   0  0  0  0  0  0  0  0  0  0  0  0
    6.8255   -7.9357   26.3646 C   0  0  0  0  0  0  0  0  0  0  0  0
    7.3785   -8.9620   25.9846 O   0  0  0  0  0  0  0  0  0  0  0  0
    7.3944   -7.1418   27.4779 C   0  0  0  0  0  0  0  0  0  0  0  0
    8.4854   -7.6534   28.1956 C   0  0  0  0  0  0  0  0  0  0  0  0
    9.0102   -6.9353   29.2664 C   0  0  0  0  0  0  0  0  0  0  0  0
    8.4486   -5.7102   29.6164 C   0  0  0  0  0  0  0  0  0  0  0  0
    7.3598   -5.2012   28.8991 C   0  0  0  0  0  0  0  0  0  0  0  0
    6.8134   -5.9079   27.8133 C   0  0  0  0  0  0  0  0  0  0  0  0
    1.2243   -2.9402   27.9649 H   0  0  0  0  0  0  0  0  0  0  0  0
    0.9172   -2.1195   26.6455 H   0  0  0  0  0  0  0  0  0  0  0  0
    1.6873   -0.9476   29.2188 H   0  0  0  0  0  0  0  0  0  0  0  0
    0.6244   -0.0517   26.7391 H   0  0  0  0  0  0  0  0  0  0  0  0
    0.6599    1.2688   29.3508 H   0  0  0  0  0  0  0  0  0  0  0  0
    0.1340    2.0277   27.8840 H   0  0  0  0  0  0  0  0  0  0  0  0
   -1.4408   -0.4214   28.1194 H   0  0  0  0  0  0  0  0  0  0  0  0
   -1.2417    1.1306   30.6827 H   0  0  0  0  0  0  0  0  0  0  0  0
   -2.6086    0.1174   30.2636 H   0  0  0  0  0  0  0  0  0  0  0  0
    1.8102   -1.6772   32.4205 H   0  0  0  0  0  0  0  0  0  0  0  0
    0.7841   -3.9297   32.4229 H   0  0  0  0  0  0  0  0  0  0  0  0
   -2.2729   -2.2798   30.0673 H   0  0  0  0  0  0  0  0  0  0  0  0
   -2.4484    2.3870   28.6406 H   0  0  0  0  0  0  0  0  0  0  0  0
   -4.1012   -1.8336   25.4844 H   0  0  0  0  0  0  0  0  0  0  0  0
   -3.2641   -2.6064   22.5853 H   0  0  0  0  0  0  0  0  0  0  0  0
    5.8017    0.5624   27.2989 H   0  0  0  0  0  0  0  0  0  0  0  0
    5.8762   -3.4132   27.4279 H   0  0  0  0  0  0  0  0  0  0  0  0
    4.1955   -5.9881   25.5854 H   0  0  0  0  0  0  0  0  0  0  0  0
    5.3043   -7.9774   25.0132 H   0  0  0  0  0  0  0  0  0  0  0  0
    8.9168   -8.6139   27.9205 H   0  0  0  0  0  0  0  0  0  0  0  0
    9.8574   -7.3290   29.8218 H   0  0  0  0  0  0  0  0  0  0  0  0
    8.8580   -5.1461   30.4511 H   0  0  0  0  0  0  0  0  0  0  0  0
    6.9395   -4.2513   29.2184 H   0  0  0  0  0  0  0  0  0  0  0  0
  1  2  1  0
  2  3  1  0
  3  4  1  0
  4  5  1  0
  5  6  1  0
  6  7  1  0
  7  8  2  0
  8  9  1  0
  9 10  2  0
 10 11  1  0
 11 12  2  0
 11 13  1  0
  5 14  1  0
 14 15  1  0
 15 16  2  0
 15 17  2  0
 15 18  1  0
 18 19  2  0
 19 20  1  0
 20 21  2  0
 21 22  1  0
  2 23  1  0
 23 24  1  0
 24 25  1  0
 25 26  2  0
 26 27  1  0
 27 28  1  0
 28 29  2  0
 28 30  1  0
 30 31  1  0
 31 32  2  0
 32 33  1  0
 33 34  1  0
 34 35  2  0
 34 36  1  0
 36 37  2  0
 37 38  1  0
 38 39  2  0
 39 40  1  0
 40 41  2  0
 13  7  1  0
 22 18  1  0
 27 23  2  0
 41 31  1  0
 41 36  1  0
  1 42  1  0
  1 43  1  0
  2 44  1  0
  3 45  1  0
  4 46  1  0
  4 47  1  0
  5 48  1  0
  6 49  1  0
  6 50  1  0
  9 51  1  0
 10 52  1  0
 13 53  1  0
 14 54  1  0
 19 55  1  0
 20 56  1  0
 25 57  1  0
 30 58  1  0
 32 59  1  0
 33 60  1  0
 37 61  1  0
 38 62  1  0
 39 63  1  0
 40 64  1  0
M  END
>  <Energy>  (817) 
314.8234655125504

>  <compound_id>  (817) 
4383

>  <target_id>  (817) 
1

>  <reference_id>  (817) 
154

>  <inspiration_ids>  (817) 
[154, 40]

>  <energy_score>  (817) 
309.56706556412485

>  <distance_score>  (817) 
2.8731068191548546

>  <path>  (817) 
/opt/xchem-fragalysis-2/maxwin/BulkDock/SCRATCH/505735/C4383-P154/C4383-P154.minimised.mol

>  <scratch_subdir>  (817) 
/opt/xchem-fragalysis-2/maxwin/BulkDock/SCRATCH/505735/C4383-P154

>  <fragmenstein_runtime>  (817) 
40.29302501678467

>  <fragmenstein_outcome>  (817) 
too moved

>  <fragmenstein_mode>  (817) 
expansion

>  <fragmenstein_error>  (817) 


$$$$
C4383-P40
     RDKit          3D

 64 68  0  0  0  0  0  0  0  0999 V2000
    1.5869   -4.5489   27.1592 N   0  0  0  0  0  0  0  0  0  0  0  0
    2.3549   -3.6489   27.9711 C   0  0  0  0  0  0  0  0  0  0  0  0
    1.3381   -2.8758   28.6336 N   0  0  0  0  0  0  0  0  0  0  0  0
    1.8251   -2.2225   29.8422 C   0  0  0  0  0  0  0  0  0  0  0  0
    0.7522   -2.2339   30.9659 C   0  0  0  0  0  0  0  0  0  0  0  0
    0.9737   -3.3114   32.0389 C   0  0  0  0  0  0  0  0  0  0  0  0
    0.4590   -4.6758   31.6415 C   0  0  0  0  0  0  0  0  0  0  0  0
    0.8350   -5.2369   30.5361 N   0  0  0  0  0  0  0  0  0  0  0  0
    0.3470   -6.4844   30.2693 C   0  0  0  0  0  0  0  0  0  0  0  0
   -0.3945   -7.2025   31.1107 C   0  0  0  0  0  0  0  0  0  0  0  0
   -0.7374   -6.5961   32.3981 C   0  0  0  0  0  0  0  0  0  0  0  0
   -1.3040   -7.2473   33.2617 O   0  0  0  0  0  0  0  0  0  0  0  0
   -0.3676   -5.2938   32.5466 N   0  0  0  0  0  0  0  0  0  0  0  0
    0.7942   -0.9224   31.6574 N   0  0  0  0  0  0  0  0  0  0  0  0
   -0.4522    0.1552   31.3561 S   0  0  0  0  0  0  0  0  0  0  0  0
   -0.0512    1.4093   31.9501 O   0  0  0  0  0  0  0  0  0  0  0  0
   -1.6941   -0.4901   31.7272 O   0  0  0  0  0  0  0  0  0  0  0  0
   -0.5717    0.4072   29.6252 C   0  0  0  0  0  0  0  0  0  0  0  0
   -1.3658   -0.1331   28.6342 C   0  0  0  0  0  0  0  0  0  0  0  0
   -1.0532    0.4557   27.3813 C   0  0  0  0  0  0  0  0  0  0  0  0
   -0.0651    1.3474   27.3643 N   0  0  0  0  0  0  0  0  0  0  0  0
    0.4907    1.5354   28.9175 S   0  0  0  0  0  0  0  0  0  0  0  0
    3.3631   -2.8962   27.1846 C   0  0  0  0  0  0  0  0  0  0  0  0
    3.4199   -1.5272   27.2090 O   0  0  0  0  0  0  0  0  0  0  0  0
    4.5343   -1.2392   26.4732 C   0  0  0  0  0  0  0  0  0  0  0  0
    5.2114   -2.2843   26.0486 N   0  0  0  0  0  0  0  0  0  0  0  0
    4.4115   -3.3430   26.4087 C   0  0  0  0  0  0  0  0  0  0  0  0
    4.6394   -4.7497   26.1176 C   0  0  0  0  0  0  0  0  0  0  0  0
    3.7435   -5.4455   25.8601 O   0  0  0  0  0  0  0  0  0  0  0  0
    6.1187   -5.0723   26.3161 N   0  0  0  0  0  0  0  0  0  0  0  0
    6.7638   -6.2589   26.3336 C   0  0  0  0  0  0  0  0  0  0  0  0
    6.4813   -7.1782   25.4031 C   0  0  0  0  0  0  0  0  0  0  0  0
    6.9650   -8.4545   25.4669 N   0  0  0  0  0  0  0  0  0  0  0  0
    7.6899   -8.9538   26.5200 C   0  0  0  0  0  0  0  0  0  0  0  0
    8.1301  -10.0965   26.5323 O   0  0  0  0  0  0  0  0  0  0  0  0
    7.9045   -8.0126   27.6550 C   0  0  0  0  0  0  0  0  0  0  0  0
    8.4577   -8.4892   28.8446 C   0  0  0  0  0  0  0  0  0  0  0  0
    8.5973   -7.6388   29.9402 C   0  0  0  0  0  0  0  0  0  0  0  0
    8.2032   -6.3063   29.8416 C   0  0  0  0  0  0  0  0  0  0  0  0
    7.6576   -5.8231   28.6497 C   0  0  0  0  0  0  0  0  0  0  0  0
    7.4923   -6.6730   27.5432 C   0  0  0  0  0  0  0  0  0  0  0  0
    2.1988   -5.3117   26.8501 H   0  0  0  0  0  0  0  0  0  0  0  0
    0.8936   -4.9469   27.7877 H   0  0  0  0  0  0  0  0  0  0  0  0
    2.8919   -4.2641   28.7051 H   0  0  0  0  0  0  0  0  0  0  0  0
    0.9777   -2.2009   27.9552 H   0  0  0  0  0  0  0  0  0  0  0  0
    2.7421   -2.6879   30.2255 H   0  0  0  0  0  0  0  0  0  0  0  0
    2.1059   -1.1957   29.5807 H   0  0  0  0  0  0  0  0  0  0  0  0
   -0.2450   -2.3851   30.5334 H   0  0  0  0  0  0  0  0  0  0  0  0
    2.0393   -3.4083   32.2798 H   0  0  0  0  0  0  0  0  0  0  0  0
    0.4751   -3.0115   32.9700 H   0  0  0  0  0  0  0  0  0  0  0  0
    0.6446   -6.9125   29.3161 H   0  0  0  0  0  0  0  0  0  0  0  0
   -0.7139   -8.2151   30.9201 H   0  0  0  0  0  0  0  0  0  0  0  0
   -0.5987   -4.8724   33.4385 H   0  0  0  0  0  0  0  0  0  0  0  0
    1.7010   -0.4626   31.7484 H   0  0  0  0  0  0  0  0  0  0  0  0
   -2.1236   -0.8869   28.7952 H   0  0  0  0  0  0  0  0  0  0  0  0
   -1.5459    0.2284   26.4444 H   0  0  0  0  0  0  0  0  0  0  0  0
    4.7605   -0.1917   26.3269 H   0  0  0  0  0  0  0  0  0  0  0  0
    6.6397   -4.2067   26.4508 H   0  0  0  0  0  0  0  0  0  0  0  0
    5.8515   -6.9610   24.5414 H   0  0  0  0  0  0  0  0  0  0  0  0
    6.7011   -9.0925   24.7106 H   0  0  0  0  0  0  0  0  0  0  0  0
    8.7475   -9.5330   28.9180 H   0  0  0  0  0  0  0  0  0  0  0  0
    9.0084   -8.0222   30.8707 H   0  0  0  0  0  0  0  0  0  0  0  0
    8.3155   -5.6440   30.6963 H   0  0  0  0  0  0  0  0  0  0  0  0
    7.3400   -4.7848   28.6107 H   0  0  0  0  0  0  0  0  0  0  0  0
  1  2  1  0
  2  3  1  0
  3  4  1  0
  4  5  1  0
  5  6  1  0
  6  7  1  0
  7  8  2  0
  8  9  1  0
  9 10  2  0
 10 11  1  0
 11 12  2  0
 11 13  1  0
  5 14  1  0
 14 15  1  0
 15 16  2  0
 15 17  2  0
 15 18  1  0
 18 19  2  0
 19 20  1  0
 20 21  2  0
 21 22  1  0
  2 23  1  0
 23 24  1  0
 24 25  1  0
 25 26  2  0
 26 27  1  0
 27 28  1  0
 28 29  2  0
 28 30  1  0
 30 31  1  0
 31 32  2  0
 32 33  1  0
 33 34  1  0
 34 35  2  0
 34 36  1  0
 36 37  2  0
 37 38  1  0
 38 39  2  0
 39 40  1  0
 40 41  2  0
 13  7  1  0
 22 18  1  0
 27 23  2  0
 41 31  1  0
 41 36  1  0
  1 42  1  0
  1 43  1  0
  2 44  1  0
  3 45  1  0
  4 46  1  0
  4 47  1  0
  5 48  1  0
  6 49  1  0
  6 50  1  0
  9 51  1  0
 10 52  1  0
 13 53  1  0
 14 54  1  0
 19 55  1  0
 20 56  1  0
 25 57  1  0
 30 58  1  0
 32 59  1  0
 33 60  1  0
 37 61  1  0
 38 62  1  0
 39 63  1  0
 40 64  1  0
M  END
>  <Energy>  (818) 
-90.669503686498672

>  <compound_id>  (818) 
4383

>  <target_id>  (818) 
1

>  <reference_id>  (818) 
40

>  <inspiration_ids>  (818) 
[154, 40]

>  <energy_score>  (818) 
-79.30195218517554

>  <distance_score>  (818) 
1.3975471304795932

>  <path>  (818) 
/opt/xchem-fragalysis-2/maxwin/BulkDock/SCRATCH/505735/C4383-P40/C4383-P40.minimised.mol

>  <scratch_subdir>  (818) 
/opt/xchem-fragalysis-2/maxwin/BulkDock/SCRATCH/505735/C4383-P40

>  <fragmenstein_runtime>  (818) 
37.21063709259033

>  <fragmenstein_outcome>  (818) 
too moved

>  <fragmenstein_mode>  (818) 
expansion

>  <fragmenstein_error>  (818) 


$$$$
C4384-P154
     RDKit          3D

 69 73  0  0  0  0  0  0  0  0999 V2000
    2.3466   -2.4985   25.6630 N   0  0  0  0  0  0  0  0  0  0  0  0
    2.1486   -2.3316   27.0765 C   0  0  0  0  0  0  0  0  0  0  0  0
    1.6823   -0.9556   27.2044 N   0  0  0  0  0  0  0  0  0  0  0  0
    0.8303   -0.7434   28.3788 C   0  0  0  0  0  0  0  0  0  0  0  0
    1.0631    0.5913   29.1394 C   0  0  0  0  0  0  0  0  0  0  0  0
    1.2102    1.8691   28.2823 C   0  0  0  0  0  0  0  0  0  0  0  0
    0.0128    2.3831   27.5299 C   0  0  0  0  0  0  0  0  0  0  0  0
   -1.2242    2.0144   27.9199 N   0  0  0  0  0  0  0  0  0  0  0  0
   -2.2480    2.5755   27.2419 C   0  0  0  0  0  0  0  0  0  0  0  0
   -2.1021    3.5060   26.2488 C   0  0  0  0  0  0  0  0  0  0  0  0
   -0.8073    3.8383   25.9681 C   0  0  0  0  0  0  0  0  0  0  0  0
   -0.5209    4.7687   25.0144 O   0  0  0  0  0  0  0  0  0  0  0  0
    0.2590    3.2899   26.5667 N   0  0  0  0  0  0  0  0  0  0  0  0
   -0.0254    0.7953   30.1153 N   0  0  0  0  0  0  0  0  0  0  0  0
    0.0353    0.2449   31.6751 S   0  0  0  0  0  0  0  0  0  0  0  0
   -1.2327    0.5878   32.2852 O   0  0  0  0  0  0  0  0  0  0  0  0
    0.5242   -1.1147   31.6534 O   0  0  0  0  0  0  0  0  0  0  0  0
    1.2695    1.2863   32.4105 C   0  0  0  0  0  0  0  0  0  0  0  0
    1.1969    2.6738   32.2354 C   0  0  0  0  0  0  0  0  0  0  0  0
    2.1844    3.4917   32.7876 C   0  0  0  0  0  0  0  0  0  0  0  0
    3.2279    2.9133   33.5058 C   0  0  0  0  0  0  0  0  0  0  0  0
    4.2155    3.6727   34.0588 O   0  0  0  0  0  0  0  0  0  0  0  0
    3.3021    1.5343   33.6816 C   0  0  0  0  0  0  0  0  0  0  0  0
    2.3202    0.7108   33.1301 C   0  0  0  0  0  0  0  0  0  0  0  0
    3.4407   -2.5102   27.8009 C   0  0  0  0  0  0  0  0  0  0  0  0
    3.9244   -1.4265   28.5071 O   0  0  0  0  0  0  0  0  0  0  0  0
    5.1098   -1.8470   29.0103 C   0  0  0  0  0  0  0  0  0  0  0  0
    5.4332   -3.0825   28.7179 N   0  0  0  0  0  0  0  0  0  0  0  0
    4.3749   -3.5189   27.9146 C   0  0  0  0  0  0  0  0  0  0  0  0
    4.3908   -4.8431   27.2825 C   0  0  0  0  0  0  0  0  0  0  0  0
    3.4509   -5.2729   26.6816 O   0  0  0  0  0  0  0  0  0  0  0  0
    5.6846   -5.4097   27.5278 N   0  0  0  0  0  0  0  0  0  0  0  0
    6.2582   -6.5611   27.0759 C   0  0  0  0  0  0  0  0  0  0  0  0
    5.8540   -7.1800   25.9564 C   0  0  0  0  0  0  0  0  0  0  0  0
    6.5730   -8.2052   25.3965 N   0  0  0  0  0  0  0  0  0  0  0  0
    7.7870   -8.6482   25.8632 C   0  0  0  0  0  0  0  0  0  0  0  0
    8.5052   -9.4140   25.2279 O   0  0  0  0  0  0  0  0  0  0  0  0
    8.1961   -8.1227   27.1902 C   0  0  0  0  0  0  0  0  0  0  0  0
    9.3042   -8.6789   27.8418 C   0  0  0  0  0  0  0  0  0  0  0  0
    9.6730   -8.2164   29.1035 C   0  0  0  0  0  0  0  0  0  0  0  0
    8.9359   -7.2048   29.7134 C   0  0  0  0  0  0  0  0  0  0  0  0
    7.8299   -6.6500   29.0621 C   0  0  0  0  0  0  0  0  0  0  0  0
    7.4466   -7.0932   27.7835 C   0  0  0  0  0  0  0  0  0  0  0  0
    1.4274   -2.4478   25.2168 H   0  0  0  0  0  0  0  0  0  0  0  0
    2.8605   -1.7022   25.2960 H   0  0  0  0  0  0  0  0  0  0  0  0
    1.4080   -3.0600   27.4248 H   0  0  0  0  0  0  0  0  0  0  0  0
    2.5250   -0.3863   27.2616 H   0  0  0  0  0  0  0  0  0  0  0  0
   -0.2169   -0.8133   28.0730 H   0  0  0  0  0  0  0  0  0  0  0  0
    0.9713   -1.5531   29.1061 H   0  0  0  0  0  0  0  0  0  0  0  0
    2.0106    0.4858   29.6847 H   0  0  0  0  0  0  0  0  0  0  0  0
    2.0351    1.7389   27.5718 H   0  0  0  0  0  0  0  0  0  0  0  0
    1.5177    2.6857   28.9503 H   0  0  0  0  0  0  0  0  0  0  0  0
   -3.2361    2.2252   27.5102 H   0  0  0  0  0  0  0  0  0  0  0  0
   -2.9515    3.9312   25.7359 H   0  0  0  0  0  0  0  0  0  0  0  0
   -1.3395    5.2444   24.8005 H   0  0  0  0  0  0  0  0  0  0  0  0
   -0.9254    1.1115   29.7384 H   0  0  0  0  0  0  0  0  0  0  0  0
    0.3882    3.1224   31.6647 H   0  0  0  0  0  0  0  0  0  0  0  0
    2.1268    4.5668   32.6446 H   0  0  0  0  0  0  0  0  0  0  0  0
    4.0470    4.6083   33.8566 H   0  0  0  0  0  0  0  0  0  0  0  0
    4.1262    1.1042   34.2452 H   0  0  0  0  0  0  0  0  0  0  0  0
    2.3838   -0.3666   33.2653 H   0  0  0  0  0  0  0  0  0  0  0  0
    5.6666   -1.1337   29.6018 H   0  0  0  0  0  0  0  0  0  0  0  0
    6.2032   -4.7939   28.1506 H   0  0  0  0  0  0  0  0  0  0  0  0
    5.0010   -6.8519   25.3680 H   0  0  0  0  0  0  0  0  0  0  0  0
    6.2703   -8.5737   24.4870 H   0  0  0  0  0  0  0  0  0  0  0  0
    9.8685   -9.4806   27.3698 H   0  0  0  0  0  0  0  0  0  0  0  0
   10.5305   -8.6517   29.6105 H   0  0  0  0  0  0  0  0  0  0  0  0
    9.2169   -6.8499   30.7021 H   0  0  0  0  0  0  0  0  0  0  0  0
    7.2673   -5.8836   29.5875 H   0  0  0  0  0  0  0  0  0  0  0  0
  1  2  1  0
  2  3  1  0
  3  4  1  0
  4  5  1  0
  5  6  1  0
  6  7  1  0
  7  8  2  0
  8  9  1  0
  9 10  2  0
 10 11  1  0
 11 12  1  0
 11 13  2  0
  5 14  1  0
 14 15  1  0
 15 16  2  0
 15 17  2  0
 15 18  1  0
 18 19  2  0
 19 20  1  0
 20 21  2  0
 21 22  1  0
 21 23  1  0
 23 24  2  0
  2 25  1  0
 25 26  1  0
 26 27  1  0
 27 28  2  0
 28 29  1  0
 29 30  1  0
 30 31  2  0
 30 32  1  0
 32 33  1  0
 33 34  2  0
 34 35  1  0
 35 36  1  0
 36 37  2  0
 36 38  1  0
 38 39  2  0
 39 40  1  0
 40 41  2  0
 41 42  1  0
 42 43  2  0
 13  7  1  0
 24 18  1  0
 29 25  2  0
 43 33  1  0
 43 38  1  0
  1 44  1  0
  1 45  1  0
  2 46  1  0
  3 47  1  0
  4 48  1  0
  4 49  1  0
  5 50  1  0
  6 51  1  0
  6 52  1  0
  9 53  1  0
 10 54  1  0
 12 55  1  0
 14 56  1  0
 19 57  1  0
 20 58  1  0
 22 59  1  0
 23 60  1  0
 24 61  1  0
 27 62  1  0
 32 63  1  0
 34 64  1  0
 35 65  1  0
 39 66  1  0
 40 67  1  0
 41 68  1  0
 42 69  1  0
M  END
>  <Energy>  (819) 
-84.152257453335523

>  <compound_id>  (819) 
4384

>  <target_id>  (819) 
1

>  <reference_id>  (819) 
154

>  <inspiration_ids>  (819) 
[154, 44]

>  <energy_score>  (819) 
-103.87629625914025

>  <distance_score>  (819) 
1.668216488972661

>  <path>  (819) 
/opt/xchem-fragalysis-2/maxwin/BulkDock/SCRATCH/505735/C4384-P154/C4384-P154.minimised.mol

>  <scratch_subdir>  (819) 
/opt/xchem-fragalysis-2/maxwin/BulkDock/SCRATCH/505735/C4384-P154

>  <fragmenstein_runtime>  (819) 
16.604706048965454

>  <fragmenstein_outcome>  (819) 
too moved

>  <fragmenstein_mode>  (819) 
expansion

>  <fragmenstein_error>  (819) 


$$$$
C4384-P44
     RDKit          3D

 69 73  0  0  0  0  0  0  0  0999 V2000
    1.7528   -3.4040   27.9452 N   0  0  0  0  0  0  0  0  0  0  0  0
    2.3573   -2.1044   28.0961 C   0  0  0  0  0  0  0  0  0  0  0  0
    1.3660   -1.1766   27.6004 N   0  0  0  0  0  0  0  0  0  0  0  0
    0.2816   -0.7965   28.4815 C   0  0  0  0  0  0  0  0  0  0  0  0
    0.5188    0.5102   29.2837 C   0  0  0  0  0  0  0  0  0  0  0  0
    0.5718    1.8416   28.4772 C   0  0  0  0  0  0  0  0  0  0  0  0
   -0.6129    2.2340   27.6526 C   0  0  0  0  0  0  0  0  0  0  0  0
   -1.6956    1.4427   27.6611 N   0  0  0  0  0  0  0  0  0  0  0  0
   -2.6878    1.7918   26.8220 C   0  0  0  0  0  0  0  0  0  0  0  0
   -2.6810    2.9062   26.0364 C   0  0  0  0  0  0  0  0  0  0  0  0
   -1.5553    3.6581   26.1588 C   0  0  0  0  0  0  0  0  0  0  0  0
   -1.4474    4.8081   25.4512 O   0  0  0  0  0  0  0  0  0  0  0  0
   -0.4970    3.3608   26.9227 N   0  0  0  0  0  0  0  0  0  0  0  0
   -0.5156    0.6180   30.3313 N   0  0  0  0  0  0  0  0  0  0  0  0
   -0.2777   -0.0800   31.8292 S   0  0  0  0  0  0  0  0  0  0  0  0
   -1.5278    0.0741   32.5448 O   0  0  0  0  0  0  0  0  0  0  0  0
    0.3375   -1.3722   31.6411 O   0  0  0  0  0  0  0  0  0  0  0  0
    0.9007    0.9968   32.6072 C   0  0  0  0  0  0  0  0  0  0  0  0
    0.8319    2.3810   32.4111 C   0  0  0  0  0  0  0  0  0  0  0  0
    1.7835    3.2123   33.0053 C   0  0  0  0  0  0  0  0  0  0  0  0
    2.7927    2.6502   33.7828 C   0  0  0  0  0  0  0  0  0  0  0  0
    3.7425    3.4242   34.3796 O   0  0  0  0  0  0  0  0  0  0  0  0
    2.8693    1.2736   33.9737 C   0  0  0  0  0  0  0  0  0  0  0  0
    1.9225    0.4379   33.3810 C   0  0  0  0  0  0  0  0  0  0  0  0
    3.6003   -1.9565   27.2754 C   0  0  0  0  0  0  0  0  0  0  0  0
    3.7253   -0.7872   26.5536 O   0  0  0  0  0  0  0  0  0  0  0  0
    4.8315   -0.9739   25.7944 C   0  0  0  0  0  0  0  0  0  0  0  0
    5.4461   -2.1162   25.9855 N   0  0  0  0  0  0  0  0  0  0  0  0
    4.7002   -2.7359   26.9747 C   0  0  0  0  0  0  0  0  0  0  0  0
    5.0347   -4.0494   27.5159 C   0  0  0  0  0  0  0  0  0  0  0  0
    4.6423   -4.3934   28.5608 O   0  0  0  0  0  0  0  0  0  0  0  0
    5.8623   -4.8125   26.4548 N   0  0  0  0  0  0  0  0  0  0  0  0
    6.4279   -6.0545   26.4961 C   0  0  0  0  0  0  0  0  0  0  0  0
    6.4131   -6.7983   25.3787 C   0  0  0  0  0  0  0  0  0  0  0  0
    6.8495   -8.0957   25.3499 N   0  0  0  0  0  0  0  0  0  0  0  0
    7.3499   -8.7712   26.4356 C   0  0  0  0  0  0  0  0  0  0  0  0
    7.7275   -9.9350   26.3670 O   0  0  0  0  0  0  0  0  0  0  0  0
    7.4339   -7.9922   27.6982 C   0  0  0  0  0  0  0  0  0  0  0  0
    7.9859   -8.6029   28.8313 C   0  0  0  0  0  0  0  0  0  0  0  0
    8.1659   -7.8670   29.9983 C   0  0  0  0  0  0  0  0  0  0  0  0
    7.8097   -6.5232   30.0264 C   0  0  0  0  0  0  0  0  0  0  0  0
    7.2492   -5.9200   28.8960 C   0  0  0  0  0  0  0  0  0  0  0  0
    7.0090   -6.6494   27.7220 C   0  0  0  0  0  0  0  0  0  0  0  0
    2.1754   -3.9051   27.1809 H   0  0  0  0  0  0  0  0  0  0  0  0
    0.7733   -3.2349   27.7338 H   0  0  0  0  0  0  0  0  0  0  0  0
    2.6052   -1.9040   29.1441 H   0  0  0  0  0  0  0  0  0  0  0  0
    1.8268   -0.3669   27.1921 H   0  0  0  0  0  0  0  0  0  0  0  0
   -0.6162   -0.7003   27.8653 H   0  0  0  0  0  0  0  0  0  0  0  0
    0.0425   -1.6216   29.1614 H   0  0  0  0  0  0  0  0  0  0  0  0
    1.4946    0.4259   29.7813 H   0  0  0  0  0  0  0  0  0  0  0  0
    1.4401    1.8008   27.8077 H   0  0  0  0  0  0  0  0  0  0  0  0
    0.7623    2.6624   29.1810 H   0  0  0  0  0  0  0  0  0  0  0  0
   -3.5363    1.1313   26.7900 H   0  0  0  0  0  0  0  0  0  0  0  0
   -3.4996    3.1820   25.3883 H   0  0  0  0  0  0  0  0  0  0  0  0
   -0.6235    5.1752   25.8139 H   0  0  0  0  0  0  0  0  0  0  0  0
   -1.4829    0.6250   29.9947 H   0  0  0  0  0  0  0  0  0  0  0  0
    0.0554    2.8215   31.7933 H   0  0  0  0  0  0  0  0  0  0  0  0
    1.7255    4.2856   32.8483 H   0  0  0  0  0  0  0  0  0  0  0  0
    3.5832    4.3547   34.1501 H   0  0  0  0  0  0  0  0  0  0  0  0
    3.6684    0.8535   34.5794 H   0  0  0  0  0  0  0  0  0  0  0  0
    1.9904   -0.6384   33.5251 H   0  0  0  0  0  0  0  0  0  0  0  0
    5.0818   -0.1774   25.1069 H   0  0  0  0  0  0  0  0  0  0  0  0
    5.9603   -4.2329   25.6156 H   0  0  0  0  0  0  0  0  0  0  0  0
    5.9788   -6.4424   24.4474 H   0  0  0  0  0  0  0  0  0  0  0  0
    6.6626   -8.6520   24.5090 H   0  0  0  0  0  0  0  0  0  0  0  0
    8.2779   -9.6501   28.7977 H   0  0  0  0  0  0  0  0  0  0  0  0
    8.5874   -8.3409   30.8807 H   0  0  0  0  0  0  0  0  0  0  0  0
    7.9682   -5.9373   30.9285 H   0  0  0  0  0  0  0  0  0  0  0  0
    7.0275   -4.8596   28.9567 H   0  0  0  0  0  0  0  0  0  0  0  0
  1  2  1  0
  2  3  1  0
  3  4  1  0
  4  5  1  0
  5  6  1  0
  6  7  1  0
  7  8  2  0
  8  9  1  0
  9 10  2  0
 10 11  1  0
 11 12  1  0
 11 13  2  0
  5 14  1  0
 14 15  1  0
 15 16  2  0
 15 17  2  0
 15 18  1  0
 18 19  2  0
 19 20  1  0
 20 21  2  0
 21 22  1  0
 21 23  1  0
 23 24  2  0
  2 25  1  0
 25 26  1  0
 26 27  1  0
 27 28  2  0
 28 29  1  0
 29 30  1  0
 30 31  2  0
 30 32  1  0
 32 33  1  0
 33 34  2  0
 34 35  1  0
 35 36  1  0
 36 37  2  0
 36 38  1  0
 38 39  2  0
 39 40  1  0
 40 41  2  0
 41 42  1  0
 42 43  2  0
 13  7  1  0
 24 18  1  0
 29 25  2  0
 43 33  1  0
 43 38  1  0
  1 44  1  0
  1 45  1  0
  2 46  1  0
  3 47  1  0
  4 48  1  0
  4 49  1  0
  5 50  1  0
  6 51  1  0
  6 52  1  0
  9 53  1  0
 10 54  1  0
 12 55  1  0
 14 56  1  0
 19 57  1  0
 20 58  1  0
 22 59  1  0
 23 60  1  0
 24 61  1  0
 27 62  1  0
 32 63  1  0
 34 64  1  0
 35 65  1  0
 39 66  1  0
 40 67  1  0
 41 68  1  0
 42 69  1  0
M  END
>  <Energy>  (820) 
-65.47365962938953

>  <compound_id>  (820) 
4384

>  <target_id>  (820) 
1

>  <reference_id>  (820) 
44

>  <inspiration_ids>  (820) 
[154, 44]

>  <energy_score>  (820) 
-79.8656493634968

>  <distance_score>  (820) 
1.2376294813274784

>  <path>  (820) 
/opt/xchem-fragalysis-2/maxwin/BulkDock/SCRATCH/505735/C4384-P44/C4384-P44.minimised.mol

>  <scratch_subdir>  (820) 
/opt/xchem-fragalysis-2/maxwin/BulkDock/SCRATCH/505735/C4384-P44

>  <fragmenstein_runtime>  (820) 
8.69305157661438

>  <fragmenstein_outcome>  (820) 
too moved

>  <fragmenstein_mode>  (820) 
expansion

>  <fragmenstein_error>  (820) 


$$$$
C4384-P154
     RDKit          3D

 69 73  0  0  0  0  0  0  0  0999 V2000
    0.7894   -3.1569   27.3158 N   0  0  0  0  0  0  0  0  0  0  0  0
    1.9589   -2.5589   27.9121 C   0  0  0  0  0  0  0  0  0  0  0  0
    2.2690   -3.4752   28.9927 N   0  0  0  0  0  0  0  0  0  0  0  0
    3.2884   -2.9876   29.9302 C   0  0  0  0  0  0  0  0  0  0  0  0
    2.8452   -1.9210   30.9662 C   0  0  0  0  0  0  0  0  0  0  0  0
    1.7895   -2.4526   31.9549 C   0  0  0  0  0  0  0  0  0  0  0  0
    0.4515   -1.8685   31.6038 C   0  0  0  0  0  0  0  0  0  0  0  0
   -0.0536   -0.9228   32.4158 N   0  0  0  0  0  0  0  0  0  0  0  0
   -1.1275   -0.2526   31.9615 C   0  0  0  0  0  0  0  0  0  0  0  0
   -1.6952   -0.4845   30.7369 C   0  0  0  0  0  0  0  0  0  0  0  0
   -1.1088   -1.4851   30.0143 C   0  0  0  0  0  0  0  0  0  0  0  0
   -1.5504   -1.7646   28.7643 O   0  0  0  0  0  0  0  0  0  0  0  0
   -0.0666   -2.2127   30.4154 N   0  0  0  0  0  0  0  0  0  0  0  0
    4.0288   -1.4770   31.7277 N   0  0  0  0  0  0  0  0  0  0  0  0
    4.6272    0.0712   31.5352 S   0  0  0  0  0  0  0  0  0  0  0  0
    5.7569    0.1837   32.4298 O   0  0  0  0  0  0  0  0  0  0  0  0
    4.7428    0.3215   30.1166 O   0  0  0  0  0  0  0  0  0  0  0  0
    3.3099    1.0671   32.1898 C   0  0  0  0  0  0  0  0  0  0  0  0
    3.0991    1.0973   33.5723 C   0  0  0  0  0  0  0  0  0  0  0  0
    2.0451    1.8516   34.0912 C   0  0  0  0  0  0  0  0  0  0  0  0
    1.2222    2.5692   33.2243 C   0  0  0  0  0  0  0  0  0  0  0  0
    0.1703    3.2995   33.6965 O   0  0  0  0  0  0  0  0  0  0  0  0
    1.4425    2.5582   31.8500 C   0  0  0  0  0  0  0  0  0  0  0  0
    2.4952    1.8067   31.3255 C   0  0  0  0  0  0  0  0  0  0  0  0
    3.0623   -2.3800   26.9470 C   0  0  0  0  0  0  0  0  0  0  0  0
    3.3050   -1.0977   26.5226 O   0  0  0  0  0  0  0  0  0  0  0  0
    4.4152   -1.2112   25.7475 C   0  0  0  0  0  0  0  0  0  0  0  0
    4.9357   -2.4144   25.6965 N   0  0  0  0  0  0  0  0  0  0  0  0
    4.0173   -3.1939   26.3778 C   0  0  0  0  0  0  0  0  0  0  0  0
    4.1364   -4.6474   26.4709 C   0  0  0  0  0  0  0  0  0  0  0  0
    3.1598   -5.3389   26.4395 O   0  0  0  0  0  0  0  0  0  0  0  0
    5.5263   -4.9917   26.5386 N   0  0  0  0  0  0  0  0  0  0  0  0
    6.1501   -6.2001   26.4965 C   0  0  0  0  0  0  0  0  0  0  0  0
    5.7325   -7.1659   25.6661 C   0  0  0  0  0  0  0  0  0  0  0  0
    6.4650   -8.3043   25.4509 N   0  0  0  0  0  0  0  0  0  0  0  0
    7.6809   -8.5668   26.0321 C   0  0  0  0  0  0  0  0  0  0  0  0
    8.3928   -9.5058   25.6928 O   0  0  0  0  0  0  0  0  0  0  0  0
    8.1023   -7.6210   27.0968 C   0  0  0  0  0  0  0  0  0  0  0  0
    9.2087   -7.9320   27.8973 C   0  0  0  0  0  0  0  0  0  0  0  0
    9.5937   -7.0606   28.9140 C   0  0  0  0  0  0  0  0  0  0  0  0
    8.8818   -5.8808   29.1237 C   0  0  0  0  0  0  0  0  0  0  0  0
    7.7784   -5.5699   28.3221 C   0  0  0  0  0  0  0  0  0  0  0  0
    7.3704   -6.4367   27.2953 C   0  0  0  0  0  0  0  0  0  0  0  0
    1.0544   -4.1172   27.0650 H   0  0  0  0  0  0  0  0  0  0  0  0
    0.6361   -2.7103   26.4044 H   0  0  0  0  0  0  0  0  0  0  0  0
    1.6653   -1.5806   28.3077 H   0  0  0  0  0  0  0  0  0  0  0  0
    1.3772   -3.6069   29.4731 H   0  0  0  0  0  0  0  0  0  0  0  0
    3.6514   -3.8643   30.4831 H   0  0  0  0  0  0  0  0  0  0  0  0
    4.1691   -2.6255   29.3853 H   0  0  0  0  0  0  0  0  0  0  0  0
    2.4529   -1.0602   30.4121 H   0  0  0  0  0  0  0  0  0  0  0  0
    2.0332   -2.1740   32.9877 H   0  0  0  0  0  0  0  0  0  0  0  0
    1.7213   -3.5462   31.9311 H   0  0  0  0  0  0  0  0  0  0  0  0
   -1.5037    0.5200   32.6243 H   0  0  0  0  0  0  0  0  0  0  0  0
   -2.5236    0.0915   30.3603 H   0  0  0  0  0  0  0  0  0  0  0  0
   -0.8955   -2.4223   28.4318 H   0  0  0  0  0  0  0  0  0  0  0  0
    4.5386   -2.0977   32.3525 H   0  0  0  0  0  0  0  0  0  0  0  0
    3.7431    0.5321   34.2421 H   0  0  0  0  0  0  0  0  0  0  0  0
    1.8754    1.8581   35.1636 H   0  0  0  0  0  0  0  0  0  0  0  0
    0.2781    3.3889   34.6590 H   0  0  0  0  0  0  0  0  0  0  0  0
    0.8025    3.1366   31.1887 H   0  0  0  0  0  0  0  0  0  0  0  0
    2.6659    1.7979   30.2512 H   0  0  0  0  0  0  0  0  0  0  0  0
    4.7630   -0.3125   25.2614 H   0  0  0  0  0  0  0  0  0  0  0  0
    6.0746   -4.1397   26.6330 H   0  0  0  0  0  0  0  0  0  0  0  0
    4.8608   -7.0582   25.0254 H   0  0  0  0  0  0  0  0  0  0  0  0
    6.1839   -8.9026   24.6655 H   0  0  0  0  0  0  0  0  0  0  0  0
    9.7590   -8.8556   27.7318 H   0  0  0  0  0  0  0  0  0  0  0  0
   10.4509   -7.3000   29.5380 H   0  0  0  0  0  0  0  0  0  0  0  0
    9.1843   -5.1991   29.9150 H   0  0  0  0  0  0  0  0  0  0  0  0
    7.2349   -4.6519   28.5274 H   0  0  0  0  0  0  0  0  0  0  0  0
  1  2  1  0
  2  3  1  0
  3  4  1  0
  4  5  1  0
  5  6  1  0
  6  7  1  0
  7  8  2  0
  8  9  1  0
  9 10  2  0
 10 11  1  0
 11 12  1  0
 11 13  2  0
  5 14  1  0
 14 15  1  0
 15 16  2  0
 15 17  2  0
 15 18  1  0
 18 19  2  0
 19 20  1  0
 20 21  2  0
 21 22  1  0
 21 23  1  0
 23 24  2  0
  2 25  1  0
 25 26  1  0
 26 27  1  0
 27 28  2  0
 28 29  1  0
 29 30  1  0
 30 31  2  0
 30 32  1  0
 32 33  1  0
 33 34  2  0
 34 35  1  0
 35 36  1  0
 36 37  2  0
 36 38  1  0
 38 39  2  0
 39 40  1  0
 40 41  2  0
 41 42  1  0
 42 43  2  0
 13  7  1  0
 24 18  1  0
 29 25  2  0
 43 33  1  0
 43 38  1  0
  1 44  1  0
  1 45  1  0
  2 46  1  0
  3 47  1  0
  4 48  1  0
  4 49  1  0
  5 50  1  0
  6 51  1  0
  6 52  1  0
  9 53  1  0
 10 54  1  0
 12 55  1  0
 14 56  1  0
 19 57  1  0
 20 58  1  0
 22 59  1  0
 23 60  1  0
 24 61  1  0
 27 62  1  0
 32 63  1  0
 34 64  1  0
 35 65  1  0
 39 66  1  0
 40 67  1  0
 41 68  1  0
 42 69  1  0
M  END
>  <Energy>  (821) 
-95.487467416961053

>  <compound_id>  (821) 
4384

>  <target_id>  (821) 
1

>  <reference_id>  (821) 
154

>  <inspiration_ids>  (821) 
[154, 59]

>  <energy_score>  (821) 
-72.71984148773242

>  <distance_score>  (821) 
1.3731073399816562

>  <path>  (821) 
/opt/xchem-fragalysis-2/maxwin/BulkDock/SCRATCH/505735/C4384-P154/C4384-P154.minimised.mol

>  <scratch_subdir>  (821) 
/opt/xchem-fragalysis-2/maxwin/BulkDock/SCRATCH/505735/C4384-P154

>  <fragmenstein_runtime>  (821) 
16.507729291915894

>  <fragmenstein_outcome>  (821) 
too moved

>  <fragmenstein_mode>  (821) 
expansion

>  <fragmenstein_error>  (821) 


$$$$
C4384-P59
     RDKit          3D

 69 73  0  0  0  0  0  0  0  0999 V2000
    3.4009   -4.7540   26.5095 N   0  0  0  0  0  0  0  0  0  0  0  0
    3.6107   -3.8596   27.6295 C   0  0  0  0  0  0  0  0  0  0  0  0
    2.2627   -3.4510   27.9220 N   0  0  0  0  0  0  0  0  0  0  0  0
    1.7456   -3.8929   29.2240 C   0  0  0  0  0  0  0  0  0  0  0  0
    2.3733   -3.2167   30.4835 C   0  0  0  0  0  0  0  0  0  0  0  0
    1.3397   -3.0677   31.6136 C   0  0  0  0  0  0  0  0  0  0  0  0
    0.2250   -2.1386   31.2247 C   0  0  0  0  0  0  0  0  0  0  0  0
   -1.0363   -2.5909   31.3693 N   0  0  0  0  0  0  0  0  0  0  0  0
   -2.0129   -1.7771   30.9263 C   0  0  0  0  0  0  0  0  0  0  0  0
   -1.7800   -0.5603   30.3428 C   0  0  0  0  0  0  0  0  0  0  0  0
   -0.4636   -0.2051   30.2758 C   0  0  0  0  0  0  0  0  0  0  0  0
   -0.1103    0.9942   29.7527 O   0  0  0  0  0  0  0  0  0  0  0  0
    0.5614   -0.9454   30.7046 N   0  0  0  0  0  0  0  0  0  0  0  0
    3.4873   -4.0588   30.9758 N   0  0  0  0  0  0  0  0  0  0  0  0
    4.9861   -3.4101   31.3427 S   0  0  0  0  0  0  0  0  0  0  0  0
    5.7712   -4.5135   31.8481 O   0  0  0  0  0  0  0  0  0  0  0  0
    5.4011   -2.6260   30.2062 O   0  0  0  0  0  0  0  0  0  0  0  0
    4.6362   -2.3174   32.6925 C   0  0  0  0  0  0  0  0  0  0  0  0
    4.6005   -2.8249   33.9966 C   0  0  0  0  0  0  0  0  0  0  0  0
    4.3280   -1.9659   35.0629 C   0  0  0  0  0  0  0  0  0  0  0  0
    4.1051   -0.6136   34.8127 C   0  0  0  0  0  0  0  0  0  0  0  0
    3.8341    0.2587   35.8244 O   0  0  0  0  0  0  0  0  0  0  0  0
    4.1576   -0.1035   33.5186 C   0  0  0  0  0  0  0  0  0  0  0  0
    4.4338   -0.9552   32.4494 C   0  0  0  0  0  0  0  0  0  0  0  0
    4.5078   -2.7512   27.2006 C   0  0  0  0  0  0  0  0  0  0  0  0
    3.9731   -1.5162   26.9362 O   0  0  0  0  0  0  0  0  0  0  0  0
    5.0542   -0.7661   26.5848 C   0  0  0  0  0  0  0  0  0  0  0  0
    6.2093   -1.3875   26.6244 N   0  0  0  0  0  0  0  0  0  0  0  0
    5.8760   -2.6812   26.9856 C   0  0  0  0  0  0  0  0  0  0  0  0
    6.8279   -3.7961   27.1603 C   0  0  0  0  0  0  0  0  0  0  0  0
    7.8318   -3.6155   27.7897 O   0  0  0  0  0  0  0  0  0  0  0  0
    6.2864   -5.0017   26.5714 N   0  0  0  0  0  0  0  0  0  0  0  0
    6.7091   -6.2994   26.6338 C   0  0  0  0  0  0  0  0  0  0  0  0
    6.3539   -7.1028   25.6160 C   0  0  0  0  0  0  0  0  0  0  0  0
    6.7795   -8.3976   25.5087 N   0  0  0  0  0  0  0  0  0  0  0  0
    7.6213   -9.0071   26.4058 C   0  0  0  0  0  0  0  0  0  0  0  0
    8.0752  -10.1294   26.2182 O   0  0  0  0  0  0  0  0  0  0  0  0
    7.9258   -8.2281   27.6367 C   0  0  0  0  0  0  0  0  0  0  0  0
    8.6051   -8.8682   28.6837 C   0  0  0  0  0  0  0  0  0  0  0  0
    8.7864   -8.2124   29.8974 C   0  0  0  0  0  0  0  0  0  0  0  0
    8.2682   -6.9346   30.0698 C   0  0  0  0  0  0  0  0  0  0  0  0
    7.5955   -6.2981   29.0209 C   0  0  0  0  0  0  0  0  0  0  0  0
    7.4471   -6.9076   27.7661 C   0  0  0  0  0  0  0  0  0  0  0  0
    3.1165   -4.1717   25.7271 H   0  0  0  0  0  0  0  0  0  0  0  0
    2.5892   -5.3092   26.7643 H   0  0  0  0  0  0  0  0  0  0  0  0
    4.0793   -4.4213   28.4418 H   0  0  0  0  0  0  0  0  0  0  0  0
    2.2212   -2.4287   27.8726 H   0  0  0  0  0  0  0  0  0  0  0  0
    0.6718   -3.6823   29.1840 H   0  0  0  0  0  0  0  0  0  0  0  0
    1.8213   -4.9856   29.2986 H   0  0  0  0  0  0  0  0  0  0  0  0
    2.7540   -2.2286   30.1989 H   0  0  0  0  0  0  0  0  0  0  0  0
    1.8052   -2.6694   32.5207 H   0  0  0  0  0  0  0  0  0  0  0  0
    0.9315   -4.0511   31.8800 H   0  0  0  0  0  0  0  0  0  0  0  0
   -3.0217   -2.1512   31.0579 H   0  0  0  0  0  0  0  0  0  0  0  0
   -2.5662    0.0739   29.9655 H   0  0  0  0  0  0  0  0  0  0  0  0
    0.8604    0.9567   29.8150 H   0  0  0  0  0  0  0  0  0  0  0  0
    3.3145   -4.9893   31.3487 H   0  0  0  0  0  0  0  0  0  0  0  0
    4.7902   -3.8788   34.1881 H   0  0  0  0  0  0  0  0  0  0  0  0
    4.2993   -2.3627   36.0732 H   0  0  0  0  0  0  0  0  0  0  0  0
    3.9171   -0.2067   36.6731 H   0  0  0  0  0  0  0  0  0  0  0  0
    3.9949    0.9574   33.3462 H   0  0  0  0  0  0  0  0  0  0  0  0
    4.4912   -0.5512   31.4407 H   0  0  0  0  0  0  0  0  0  0  0  0
    4.8621    0.2620   26.3116 H   0  0  0  0  0  0  0  0  0  0  0  0
    5.4542   -4.7650   26.0348 H   0  0  0  0  0  0  0  0  0  0  0  0
    5.7586   -6.7526   24.7747 H   0  0  0  0  0  0  0  0  0  0  0  0
    6.4957   -8.9347   24.6821 H   0  0  0  0  0  0  0  0  0  0  0  0
    8.9641   -9.8871   28.5589 H   0  0  0  0  0  0  0  0  0  0  0  0
    9.3048   -8.7040   30.7152 H   0  0  0  0  0  0  0  0  0  0  0  0
    8.3744   -6.4232   31.0243 H   0  0  0  0  0  0  0  0  0  0  0  0
    7.1774   -5.3197   29.2332 H   0  0  0  0  0  0  0  0  0  0  0  0
  1  2  1  0
  2  3  1  0
  3  4  1  0
  4  5  1  0
  5  6  1  0
  6  7  1  0
  7  8  2  0
  8  9  1  0
  9 10  2  0
 10 11  1  0
 11 12  1  0
 11 13  2  0
  5 14  1  0
 14 15  1  0
 15 16  2  0
 15 17  2  0
 15 18  1  0
 18 19  2  0
 19 20  1  0
 20 21  2  0
 21 22  1  0
 21 23  1  0
 23 24  2  0
  2 25  1  0
 25 26  1  0
 26 27  1  0
 27 28  2  0
 28 29  1  0
 29 30  1  0
 30 31  2  0
 30 32  1  0
 32 33  1  0
 33 34  2  0
 34 35  1  0
 35 36  1  0
 36 37  2  0
 36 38  1  0
 38 39  2  0
 39 40  1  0
 40 41  2  0
 41 42  1  0
 42 43  2  0
 13  7  1  0
 24 18  1  0
 29 25  2  0
 43 33  1  0
 43 38  1  0
  1 44  1  0
  1 45  1  0
  2 46  1  0
  3 47  1  0
  4 48  1  0
  4 49  1  0
  5 50  1  0
  6 51  1  0
  6 52  1  0
  9 53  1  0
 10 54  1  0
 12 55  1  0
 14 56  1  0
 19 57  1  0
 20 58  1  0
 22 59  1  0
 23 60  1  0
 24 61  1  0
 27 62  1  0
 32 63  1  0
 34 64  1  0
 35 65  1  0
 39 66  1  0
 40 67  1  0
 41 68  1  0
 42 69  1  0
M  END
>  <Energy>  (822) 
-82.077345446931389

>  <compound_id>  (822) 
4384

>  <target_id>  (822) 
1

>  <reference_id>  (822) 
59

>  <inspiration_ids>  (822) 
[154, 59]

>  <energy_score>  (822) 
-59.3097195177005

>  <distance_score>  (822) 
1.6763616640742605

>  <path>  (822) 
/opt/xchem-fragalysis-2/maxwin/BulkDock/SCRATCH/505735/C4384-P59/C4384-P59.minimised.mol

>  <scratch_subdir>  (822) 
/opt/xchem-fragalysis-2/maxwin/BulkDock/SCRATCH/505735/C4384-P59

>  <fragmenstein_runtime>  (822) 
10.499280214309692

>  <fragmenstein_outcome>  (822) 
too moved

>  <fragmenstein_mode>  (822) 
expansion

>  <fragmenstein_error>  (822) 


$$$$
C4385-P154
     RDKit          3D

 76 80  0  0  0  0  0  0  0  0999 V2000
    0.2018    4.7931   27.3388 C   0  0  0  0  0  0  0  0  0  0  0  0
   -0.9364    4.2758   26.5123 C   0  0  0  0  0  0  0  0  0  0  0  0
   -1.7856    3.3233   27.0257 C   0  0  0  0  0  0  0  0  0  0  0  0
   -2.7927    2.9504   26.1859 C   0  0  0  0  0  0  0  0  0  0  0  0
   -3.6774    1.9903   26.5304 O   0  0  0  0  0  0  0  0  0  0  0  0
   -3.0013    3.4249   24.9607 N   0  0  0  0  0  0  0  0  0  0  0  0
   -2.1407    4.3664   24.5442 C   0  0  0  0  0  0  0  0  0  0  0  0
   -2.3156    4.9201   23.1495 C   0  0  0  0  0  0  0  0  0  0  0  0
   -3.5048    4.3312   22.3647 C   0  0  0  0  0  0  0  0  0  0  0  0
   -3.3330    2.8504   22.2817 N   0  0  0  0  0  0  0  0  0  0  0  0
   -4.5546    1.9623   21.4490 S   0  0  0  0  0  0  0  0  0  0  0  0
   -5.6992    1.8908   22.2689 O   0  0  0  0  0  0  0  0  0  0  0  0
   -4.8122    2.4468   20.1156 O   0  0  0  0  0  0  0  0  0  0  0  0
   -3.9292   -0.3502   21.4164 N   0  0  0  0  0  0  0  0  0  0  0  0
   -2.5890   -0.1391   21.8968 C   0  0  0  0  0  0  0  0  0  0  0  0
   -1.9689   -1.7142   22.7186 C   0  0  0  0  0  0  0  0  0  0  0  0
   -3.0926   -2.5857   23.4035 C   0  0  0  0  0  0  0  0  0  0  0  0
   -2.8697   -4.4511   24.0598 C   0  0  0  0  0  0  0  0  0  0  0  0
   -1.0400   -5.0086   24.6362 C   0  0  0  0  0  0  0  0  0  0  0  0
    0.2899   -4.3081   25.2636 N   0  0  0  0  0  0  0  0  0  0  0  0
    0.6045   -3.4204   26.4091 C   0  0  0  0  0  0  0  0  0  0  0  0
    0.1248   -3.8851   27.6930 N   0  0  0  0  0  0  0  0  0  0  0  0
    2.0622   -3.0156   26.5114 C   0  0  0  0  0  0  0  0  0  0  0  0
    2.2895   -1.6521   26.5835 O   0  0  0  0  0  0  0  0  0  0  0  0
    3.6323   -1.5184   26.6958 C   0  0  0  0  0  0  0  0  0  0  0  0
    4.2970   -2.6439   26.7741 N   0  0  0  0  0  0  0  0  0  0  0  0
    3.3086   -3.6139   26.6052 C   0  0  0  0  0  0  0  0  0  0  0  0
    3.6572   -5.0292   26.5152 C   0  0  0  0  0  0  0  0  0  0  0  0
    2.8213   -5.8282   26.2196 O   0  0  0  0  0  0  0  0  0  0  0  0
    5.0600   -5.1876   26.7502 N   0  0  0  0  0  0  0  0  0  0  0  0
    5.8723   -6.2753   26.6187 C   0  0  0  0  0  0  0  0  0  0  0  0
    5.6157   -7.2202   25.7016 C   0  0  0  0  0  0  0  0  0  0  0  0
    6.5042   -8.2218   25.4140 N   0  0  0  0  0  0  0  0  0  0  0  0
    7.7443   -8.3475   25.9875 C   0  0  0  0  0  0  0  0  0  0  0  0
    8.5832   -9.1451   25.5811 O   0  0  0  0  0  0  0  0  0  0  0  0
    8.0152   -7.4374   27.1317 C   0  0  0  0  0  0  0  0  0  0  0  0
    9.1549   -7.6448   27.9184 C   0  0  0  0  0  0  0  0  0  0  0  0
    9.4000   -6.8182   29.0127 C   0  0  0  0  0  0  0  0  0  0  0  0
    8.5142   -5.7855   29.3148 C   0  0  0  0  0  0  0  0  0  0  0  0
    7.3770   -5.5764   28.5271 C   0  0  0  0  0  0  0  0  0  0  0  0
    7.1083   -6.3995   27.4215 C   0  0  0  0  0  0  0  0  0  0  0  0
   -3.6179   -2.2537   22.0516 C   0  0  0  0  0  0  0  0  0  0  0  0
   -1.0867    4.7896   25.2675 N   0  0  0  0  0  0  0  0  0  0  0  0
    0.8636    3.9712   27.6291 H   0  0  0  0  0  0  0  0  0  0  0  0
    0.7923    5.5225   26.7750 H   0  0  0  0  0  0  0  0  0  0  0  0
   -0.1781    5.2850   28.2394 H   0  0  0  0  0  0  0  0  0  0  0  0
   -1.6839    2.9089   28.0169 H   0  0  0  0  0  0  0  0  0  0  0  0
   -4.3485    2.1070   25.8310 H   0  0  0  0  0  0  0  0  0  0  0  0
   -2.4397    6.0064   23.2227 H   0  0  0  0  0  0  0  0  0  0  0  0
   -1.3887    4.7285   22.5949 H   0  0  0  0  0  0  0  0  0  0  0  0
   -3.5287    4.7606   21.3586 H   0  0  0  0  0  0  0  0  0  0  0  0
   -4.4419    4.5682   22.8766 H   0  0  0  0  0  0  0  0  0  0  0  0
   -3.4967    2.5444   23.2586 H   0  0  0  0  0  0  0  0  0  0  0  0
   -1.9284    0.7368   21.7348 H   0  0  0  0  0  0  0  0  0  0  0  0
   -2.6853    0.8714   22.4034 H   0  0  0  0  0  0  0  0  0  0  0  0
   -1.5027   -2.3131   22.0403 H   0  0  0  0  0  0  0  0  0  0  0  0
   -0.8709   -1.7797   22.6535 H   0  0  0  0  0  0  0  0  0  0  0  0
   -3.5871   -2.2038   24.2805 H   0  0  0  0  0  0  0  0  0  0  0  0
   -3.1546   -4.0944   25.0401 H   0  0  0  0  0  0  0  0  0  0  0  0
   -2.9901   -5.4069   23.5633 H   0  0  0  0  0  0  0  0  0  0  0  0
   -0.5464   -5.0810   23.6912 H   0  0  0  0  0  0  0  0  0  0  0  0
   -1.4753   -5.8472   25.1480 H   0  0  0  0  0  0  0  0  0  0  0  0
    0.9939   -5.0418   25.3370 H   0  0  0  0  0  0  0  0  0  0  0  0
    0.1460   -2.4564   26.3618 H   0  0  0  0  0  0  0  0  0  0  0  0
    0.4665   -4.8396   27.7796 H   0  0  0  0  0  0  0  0  0  0  0  0
   -0.8857   -3.9978   27.5865 H   0  0  0  0  0  0  0  0  0  0  0  0
    4.0190   -0.5096   26.7208 H   0  0  0  0  0  0  0  0  0  0  0  0
    5.4461   -4.2984   27.0649 H   0  0  0  0  0  0  0  0  0  0  0  0
    4.7439   -7.1980   25.0529 H   0  0  0  0  0  0  0  0  0  0  0  0
    6.3040   -8.8073   24.5952 H   0  0  0  0  0  0  0  0  0  0  0  0
    9.8416   -8.4545   27.6819 H   0  0  0  0  0  0  0  0  0  0  0  0
   10.2828   -6.9781   29.6264 H   0  0  0  0  0  0  0  0  0  0  0  0
    8.7070   -5.1402   30.1685 H   0  0  0  0  0  0  0  0  0  0  0  0
    6.7006   -4.7741   28.8079 H   0  0  0  0  0  0  0  0  0  0  0  0
   -2.9768   -2.5580   21.4541 H   0  0  0  0  0  0  0  0  0  0  0  0
   -4.3710   -3.0991   21.9576 H   0  0  0  0  0  0  0  0  0  0  0  0
  1  2  1  0
  2  3  2  0
  3  4  1  0
  4  5  1  0
  4  6  2  0
  6  7  1  0
  7  8  1  0
  8  9  1  0
  9 10  1  0
 10 11  1  0
 11 12  2  0
 11 13  2  0
 11 14  1  0
 14 15  1  0
 15 16  1  0
 16 17  1  0
 17 18  1  0
 18 19  1  0
 19 20  1  0
 20 21  1  0
 21 22  1  0
 21 23  1  0
 23 24  1  0
 24 25  1  0
 25 26  2  0
 26 27  1  0
 27 28  1  0
 28 29  2  0
 28 30  1  0
 30 31  1  0
 31 32  2  0
 32 33  1  0
 33 34  1  0
 34 35  2  0
 34 36  1  0
 36 37  2  0
 37 38  1  0
 38 39  2  0
 39 40  1  0
 40 41  2  0
 17 42  1  0
  7 43  2  0
 43  2  1  0
 42 14  1  0
 27 23  2  0
 41 31  1  0
 41 36  1  0
  1 44  1  0
  1 45  1  0
  1 46  1  0
  3 47  1  0
  5 48  1  0
  8 49  1  0
  8 50  1  0
  9 51  1  0
  9 52  1  0
 10 53  1  0
 15 54  1  0
 15 55  1  0
 16 56  1  0
 16 57  1  0
 17 58  1  0
 18 59  1  0
 18 60  1  0
 19 61  1  0
 19 62  1  0
 20 63  1  0
 21 64  1  0
 22 65  1  0
 22 66  1  0
 25 67  1  0
 30 68  1  0
 32 69  1  0
 33 70  1  0
 37 71  1  0
 38 72  1  0
 39 73  1  0
 40 74  1  0
 42 75  1  0
 42 76  1  0
M  END
>  <Energy>  (823) 
453.86777650517735

>  <compound_id>  (823) 
4385

>  <target_id>  (823) 
1

>  <reference_id>  (823) 
154

>  <inspiration_ids>  (823) 
[154, 70]

>  <energy_score>  (823) 
357.81101690401215

>  <distance_score>  (823) 
1.8358738154895022

>  <path>  (823) 
/opt/xchem-fragalysis-2/maxwin/BulkDock/SCRATCH/505735/C4385-P154/C4385-P154.minimised.mol

>  <scratch_subdir>  (823) 
/opt/xchem-fragalysis-2/maxwin/BulkDock/SCRATCH/505735/C4385-P154

>  <fragmenstein_runtime>  (823) 
31.56157374382019

>  <fragmenstein_outcome>  (823) 
too moved

>  <fragmenstein_mode>  (823) 
expansion

>  <fragmenstein_error>  (823) 


$$$$
C4385-P70
     RDKit          3D

 76 80  0  0  0  0  0  0  0  0999 V2000
   -1.9547    1.3879   26.9686 C   0  0  0  0  0  0  0  0  0  0  0  0
   -1.8419    2.8242   26.5695 C   0  0  0  0  0  0  0  0  0  0  0  0
   -1.5341    3.7631   27.5287 C   0  0  0  0  0  0  0  0  0  0  0  0
   -1.4242    5.0524   27.0906 C   0  0  0  0  0  0  0  0  0  0  0  0
   -1.1791    6.0697   27.9711 O   0  0  0  0  0  0  0  0  0  0  0  0
   -1.5516    5.4162   25.8107 N   0  0  0  0  0  0  0  0  0  0  0  0
   -1.8760    4.4474   24.9368 C   0  0  0  0  0  0  0  0  0  0  0  0
   -2.0171    4.8651   23.4887 C   0  0  0  0  0  0  0  0  0  0  0  0
   -3.2946    4.3744   22.7896 C   0  0  0  0  0  0  0  0  0  0  0  0
   -3.2173    2.8956   22.6924 N   0  0  0  0  0  0  0  0  0  0  0  0
   -4.4212    2.0772   21.7547 S   0  0  0  0  0  0  0  0  0  0  0  0
   -5.6870    2.0360   22.3560 O   0  0  0  0  0  0  0  0  0  0  0  0
   -4.5709    2.6276   20.4310 O   0  0  0  0  0  0  0  0  0  0  0  0
   -3.7863   -0.2586   21.7739 N   0  0  0  0  0  0  0  0  0  0  0  0
   -2.4588   -0.0880   22.0626 C   0  0  0  0  0  0  0  0  0  0  0  0
   -1.9526   -1.6591   23.2121 C   0  0  0  0  0  0  0  0  0  0  0  0
   -2.9958   -2.6647   24.6340 C   0  0  0  0  0  0  0  0  0  0  0  0
   -1.9571   -2.4259   26.5343 C   0  0  0  0  0  0  0  0  0  0  0  0
    0.1274   -2.5717   26.1901 C   0  0  0  0  0  0  0  0  0  0  0  0
    0.6797   -3.2849   27.4148 N   0  0  0  0  0  0  0  0  0  0  0  0
    2.1159   -3.1585   27.6525 C   0  0  0  0  0  0  0  0  0  0  0  0
    2.8820   -3.1420   26.4473 N   0  0  0  0  0  0  0  0  0  0  0  0
    2.6565   -2.0816   28.5196 C   0  0  0  0  0  0  0  0  0  0  0  0
    2.4675   -0.7654   28.1969 O   0  0  0  0  0  0  0  0  0  0  0  0
    3.4389   -0.1246   28.9056 C   0  0  0  0  0  0  0  0  0  0  0  0
    4.2288   -0.8954   29.6255 N   0  0  0  0  0  0  0  0  0  0  0  0
    3.7013   -2.1544   29.4322 C   0  0  0  0  0  0  0  0  0  0  0  0
    4.2780   -3.4218   29.9084 C   0  0  0  0  0  0  0  0  0  0  0  0
    3.5751   -4.1581   30.5401 O   0  0  0  0  0  0  0  0  0  0  0  0
    5.6262   -3.5924   29.4241 N   0  0  0  0  0  0  0  0  0  0  0  0
    6.4691   -4.6806   29.4641 C   0  0  0  0  0  0  0  0  0  0  0  0
    6.1402   -5.8058   30.1201 C   0  0  0  0  0  0  0  0  0  0  0  0
    6.8328   -6.9820   29.9813 N   0  0  0  0  0  0  0  0  0  0  0  0
    7.8797   -7.1645   29.1150 C   0  0  0  0  0  0  0  0  0  0  0  0
    8.3307   -8.2771   28.8695 O   0  0  0  0  0  0  0  0  0  0  0  0
    8.4159   -5.9304   28.5039 C   0  0  0  0  0  0  0  0  0  0  0  0
    9.6125   -6.0141   27.7861 C   0  0  0  0  0  0  0  0  0  0  0  0
   10.1529   -4.8606   27.2372 C   0  0  0  0  0  0  0  0  0  0  0  0
    9.5008   -3.6403   27.4063 C   0  0  0  0  0  0  0  0  0  0  0  0
    8.3049   -3.5588   28.1262 C   0  0  0  0  0  0  0  0  0  0  0  0
    7.7345   -4.7056   28.6881 C   0  0  0  0  0  0  0  0  0  0  0  0
   -3.0926   -1.9562   22.8015 C   0  0  0  0  0  0  0  0  0  0  0  0
   -2.0024    3.1334   25.2610 N   0  0  0  0  0  0  0  0  0  0  0  0
   -2.6929    0.8821   26.3431 H   0  0  0  0  0  0  0  0  0  0  0  0
   -0.9846    0.8957   26.8595 H   0  0  0  0  0  0  0  0  0  0  0  0
   -2.2753    1.2900   28.0098 H   0  0  0  0  0  0  0  0  0  0  0  0
   -1.3871    3.4992   28.5613 H   0  0  0  0  0  0  0  0  0  0  0  0
   -1.4012    5.7625   28.8740 H   0  0  0  0  0  0  0  0  0  0  0  0
   -1.9979    5.9604   23.4352 H   0  0  0  0  0  0  0  0  0  0  0  0
   -1.1325    4.5025   22.9504 H   0  0  0  0  0  0  0  0  0  0  0  0
   -3.3486    4.8096   21.7873 H   0  0  0  0  0  0  0  0  0  0  0  0
   -4.1832    4.6640   23.3591 H   0  0  0  0  0  0  0  0  0  0  0  0
   -3.4492    2.5896   23.6522 H   0  0  0  0  0  0  0  0  0  0  0  0
   -1.7824    0.7955   22.0206 H   0  0  0  0  0  0  0  0  0  0  0  0
   -2.5925    0.9365   22.4435 H   0  0  0  0  0  0  0  0  0  0  0  0
   -1.1552   -2.2875   22.7243 H   0  0  0  0  0  0  0  0  0  0  0  0
   -1.4340   -0.9312   23.8038 H   0  0  0  0  0  0  0  0  0  0  0  0
   -3.7429   -2.0415   25.2120 H   0  0  0  0  0  0  0  0  0  0  0  0
   -2.0870   -1.3208   26.7449 H   0  0  0  0  0  0  0  0  0  0  0  0
   -2.1878   -2.6693   27.5756 H   0  0  0  0  0  0  0  0  0  0  0  0
   -0.1087   -2.9028   24.2425 H   0  0  0  0  0  0  0  0  0  0  0  0
    0.3720   -1.5196   26.5772 H   0  0  0  0  0  0  0  0  0  0  0  0
    0.4606   -4.2729   27.3372 H   0  0  0  0  0  0  0  0  0  0  0  0
    2.3620   -4.0881   28.1730 H   0  0  0  0  0  0  0  0  0  0  0  0
    3.8607   -2.8936   26.5716 H   0  0  0  0  0  0  0  0  0  0  0  0
    2.5076   -2.4640   25.7803 H   0  0  0  0  0  0  0  0  0  0  0  0
    3.4817    0.9499   28.7942 H   0  0  0  0  0  0  0  0  0  0  0  0
    5.8762   -2.7909   28.8521 H   0  0  0  0  0  0  0  0  0  0  0  0
    5.2649   -5.8646   30.7581 H   0  0  0  0  0  0  0  0  0  0  0  0
    6.5574   -7.8056   30.5024 H   0  0  0  0  0  0  0  0  0  0  0  0
   10.1207   -6.9662   27.6597 H   0  0  0  0  0  0  0  0  0  0  0  0
   11.0723   -4.9042   26.6588 H   0  0  0  0  0  0  0  0  0  0  0  0
    9.9161   -2.7439   26.9497 H   0  0  0  0  0  0  0  0  0  0  0  0
    7.8424   -2.5814   28.2201 H   0  0  0  0  0  0  0  0  0  0  0  0
   -3.6604   -2.7877   22.2931 H   0  0  0  0  0  0  0  0  0  0  0  0
   -3.5043   -1.6017   23.7795 H   0  0  0  0  0  0  0  0  0  0  0  0
  1  2  1  0
  2  3  2  0
  3  4  1  0
  4  5  1  0
  4  6  2  0
  6  7  1  0
  7  8  1  0
  8  9  1  0
  9 10  1  0
 10 11  1  0
 11 12  2  0
 11 13  2  0
 11 14  1  0
 14 15  1  0
 15 16  1  0
 16 17  1  0
 17 18  1  0
 18 19  1  0
 19 20  1  0
 20 21  1  0
 21 22  1  0
 21 23  1  0
 23 24  1  0
 24 25  1  0
 25 26  2  0
 26 27  1  0
 27 28  1  0
 28 29  2  0
 28 30  1  0
 30 31  1  0
 31 32  2  0
 32 33  1  0
 33 34  1  0
 34 35  2  0
 34 36  1  0
 36 37  2  0
 37 38  1  0
 38 39  2  0
 39 40  1  0
 40 41  2  0
 17 42  1  0
  7 43  2  0
 43  2  1  0
 42 14  1  0
 27 23  2  0
 41 31  1  0
 41 36  1  0
  1 44  1  0
  1 45  1  0
  1 46  1  0
  3 47  1  0
  5 48  1  0
  8 49  1  0
  8 50  1  0
  9 51  1  0
  9 52  1  0
 10 53  1  0
 15 54  1  0
 15 55  1  0
 16 56  1  0
 16 57  1  0
 17 58  1  0
 18 59  1  0
 18 60  1  0
 19 61  1  0
 19 62  1  0
 20 63  1  0
 21 64  1  0
 22 65  1  0
 22 66  1  0
 25 67  1  0
 30 68  1  0
 32 69  1  0
 33 70  1  0
 37 71  1  0
 38 72  1  0
 39 73  1  0
 40 74  1  0
 42 75  1  0
 42 76  1  0
M  END
>  <Energy>  (824) 
1162.2682834822908

>  <compound_id>  (824) 
4385

>  <target_id>  (824) 
1

>  <reference_id>  (824) 
70

>  <inspiration_ids>  (824) 
[154, 70]

>  <energy_score>  (824) 
1066.2115238811305

>  <distance_score>  (824) 
3.174098921329342

>  <path>  (824) 
/opt/xchem-fragalysis-2/maxwin/BulkDock/SCRATCH/505735/C4385-P70/C4385-P70.minimised.mol

>  <scratch_subdir>  (824) 
/opt/xchem-fragalysis-2/maxwin/BulkDock/SCRATCH/505735/C4385-P70

>  <fragmenstein_runtime>  (824) 
18.164695978164673

>  <fragmenstein_outcome>  (824) 
too moved

>  <fragmenstein_mode>  (824) 
expansion

>  <fragmenstein_error>  (824) 


$$$$
C4386-P154
     RDKit          3D

 74 78  0  0  0  0  0  0  0  0999 V2000
   -1.2698   -7.5023   35.4216 C   0  0  0  0  0  0  0  0  0  0  0  0
    0.1835   -7.2350   35.4937 C   0  0  0  0  0  0  0  0  0  0  0  0
    0.9032   -7.4195   36.6547 C   0  0  0  0  0  0  0  0  0  0  0  0
    2.2255   -7.0659   36.5834 C   0  0  0  0  0  0  0  0  0  0  0  0
    3.0673   -7.2516   37.6384 O   0  0  0  0  0  0  0  0  0  0  0  0
    2.8010   -6.5411   35.4955 N   0  0  0  0  0  0  0  0  0  0  0  0
    1.9935   -6.3746   34.4365 C   0  0  0  0  0  0  0  0  0  0  0  0
    2.5650   -5.7960   33.1972 C   0  0  0  0  0  0  0  0  0  0  0  0
    2.6457   -4.2744   33.2096 C   0  0  0  0  0  0  0  0  0  0  0  0
    3.0478   -3.8799   31.7240 C   0  0  0  0  0  0  0  0  0  0  0  0
    1.8901   -3.6457   30.6912 C   0  0  0  0  0  0  0  0  0  0  0  0
    2.4398   -3.6224   29.3261 N   0  0  0  0  0  0  0  0  0  0  0  0
    1.8436   -2.8486   28.2738 C   0  0  0  0  0  0  0  0  0  0  0  0
    0.6022   -3.4691   27.9154 N   0  0  0  0  0  0  0  0  0  0  0  0
    2.8027   -2.7381   27.1292 C   0  0  0  0  0  0  0  0  0  0  0  0
    2.8363   -1.5414   26.4529 O   0  0  0  0  0  0  0  0  0  0  0  0
    3.8759   -1.6714   25.5841 C   0  0  0  0  0  0  0  0  0  0  0  0
    4.5012   -2.8239   25.6329 N   0  0  0  0  0  0  0  0  0  0  0  0
    3.8130   -3.5317   26.6101 C   0  0  0  0  0  0  0  0  0  0  0  0
    4.2475   -4.8599   27.0637 C   0  0  0  0  0  0  0  0  0  0  0  0
    3.7099   -5.4217   27.9342 O   0  0  0  0  0  0  0  0  0  0  0  0
    5.5122   -5.2292   26.2688 N   0  0  0  0  0  0  0  0  0  0  0  0
    6.2816   -6.3414   26.3080 C   0  0  0  0  0  0  0  0  0  0  0  0
    6.4393   -7.0858   25.2105 C   0  0  0  0  0  0  0  0  0  0  0  0
    7.0853   -8.2919   25.2457 N   0  0  0  0  0  0  0  0  0  0  0  0
    7.6518   -8.8413   26.3700 C   0  0  0  0  0  0  0  0  0  0  0  0
    8.1738   -9.9495   26.3661 O   0  0  0  0  0  0  0  0  0  0  0  0
    7.6006   -8.0027   27.5969 C   0  0  0  0  0  0  0  0  0  0  0  0
    8.2726   -8.4226   28.7493 C   0  0  0  0  0  0  0  0  0  0  0  0
    8.2679   -7.6204   29.8899 C   0  0  0  0  0  0  0  0  0  0  0  0
    7.5907   -6.4046   29.8803 C   0  0  0  0  0  0  0  0  0  0  0  0
    6.9163   -5.9881   28.7301 C   0  0  0  0  0  0  0  0  0  0  0  0
    6.9042   -6.7833   27.5717 C   0  0  0  0  0  0  0  0  0  0  0  0
    3.7449   -3.8983   34.1931 N   0  0  0  0  0  0  0  0  0  0  0  0
    3.5171   -2.4224   35.0001 S   0  0  0  0  0  0  0  0  0  0  0  0
    4.7906   -2.0202   35.5547 O   0  0  0  0  0  0  0  0  0  0  0  0
    2.3213   -2.5386   35.8038 O   0  0  0  0  0  0  0  0  0  0  0  0
    3.1627   -1.2754   33.7360 C   0  0  0  0  0  0  0  0  0  0  0  0
    4.1554   -0.7941   32.8603 C   0  0  0  0  0  0  0  0  0  0  0  0
    3.4587   -0.2041   31.8331 C   0  0  0  0  0  0  0  0  0  0  0  0
    2.1436   -0.2899   32.1656 N   0  0  0  0  0  0  0  0  0  0  0  0
    1.0256    0.2536   31.4328 C   0  0  0  0  0  0  0  0  0  0  0  0
    1.9244   -0.9832   33.2930 N   0  0  0  0  0  0  0  0  0  0  0  0
    0.7141   -6.7324   34.3727 N   0  0  0  0  0  0  0  0  0  0  0  0
   -1.5258   -8.4317   35.9194 H   0  0  0  0  0  0  0  0  0  0  0  0
   -1.7730   -6.6660   35.9004 H   0  0  0  0  0  0  0  0  0  0  0  0
   -1.6077   -7.5775   34.3837 H   0  0  0  0  0  0  0  0  0  0  0  0
    0.4517   -7.8286   37.5478 H   0  0  0  0  0  0  0  0  0  0  0  0
    2.5652   -7.6587   38.3625 H   0  0  0  0  0  0  0  0  0  0  0  0
    1.9928   -6.1563   32.3344 H   0  0  0  0  0  0  0  0  0  0  0  0
    3.5778   -6.1782   33.1153 H   0  0  0  0  0  0  0  0  0  0  0  0
    1.6860   -3.8313   33.4939 H   0  0  0  0  0  0  0  0  0  0  0  0
    3.6914   -3.0027   31.7170 H   0  0  0  0  0  0  0  0  0  0  0  0
    3.6993   -4.6699   31.3251 H   0  0  0  0  0  0  0  0  0  0  0  0
    1.1470   -4.4461   30.7691 H   0  0  0  0  0  0  0  0  0  0  0  0
    1.3896   -2.7039   30.9254 H   0  0  0  0  0  0  0  0  0  0  0  0
    2.6358   -4.5727   29.0060 H   0  0  0  0  0  0  0  0  0  0  0  0
    1.6446   -1.8350   28.6420 H   0  0  0  0  0  0  0  0  0  0  0  0
    0.7876   -4.4096   27.5704 H   0  0  0  0  0  0  0  0  0  0  0  0
    0.2222   -2.9714   27.1086 H   0  0  0  0  0  0  0  0  0  0  0  0
    4.0956   -0.8222   24.9520 H   0  0  0  0  0  0  0  0  0  0  0  0
    5.7483   -4.4669   25.6307 H   0  0  0  0  0  0  0  0  0  0  0  0
    5.9801   -6.8313   24.2594 H   0  0  0  0  0  0  0  0  0  0  0  0
    6.9659   -8.8968   24.4310 H   0  0  0  0  0  0  0  0  0  0  0  0
    8.8127   -9.3662   28.7433 H   0  0  0  0  0  0  0  0  0  0  0  0
    8.8011   -7.9363   30.7825 H   0  0  0  0  0  0  0  0  0  0  0  0
    7.5969   -5.7713   30.7642 H   0  0  0  0  0  0  0  0  0  0  0  0
    6.4280   -5.0176   28.7463 H   0  0  0  0  0  0  0  0  0  0  0  0
    3.8640   -4.6083   34.9301 H   0  0  0  0  0  0  0  0  0  0  0  0
    5.2258   -0.9329   32.9331 H   0  0  0  0  0  0  0  0  0  0  0  0
    3.7929    0.2759   30.9236 H   0  0  0  0  0  0  0  0  0  0  0  0
    0.6191    1.0916   32.0042 H   0  0  0  0  0  0  0  0  0  0  0  0
    0.2715   -0.5278   31.3104 H   0  0  0  0  0  0  0  0  0  0  0  0
    1.3664    0.5959   30.4525 H   0  0  0  0  0  0  0  0  0  0  0  0
  1  2  1  0
  2  3  2  0
  3  4  1  0
  4  5  1  0
  4  6  2  0
  6  7  1  0
  7  8  1  0
  8  9  1  0
  9 10  1  0
 10 11  1  0
 11 12  1  0
 12 13  1  0
 13 14  1  0
 13 15  1  0
 15 16  1  0
 16 17  1  0
 17 18  2  0
 18 19  1  0
 19 20  1  0
 20 21  2  0
 20 22  1  0
 22 23  1  0
 23 24  2  0
 24 25  1  0
 25 26  1  0
 26 27  2  0
 26 28  1  0
 28 29  2  0
 29 30  1  0
 30 31  2  0
 31 32  1  0
 32 33  2  0
  9 34  1  0
 34 35  1  0
 35 36  2  0
 35 37  2  0
 35 38  1  0
 38 39  1  0
 39 40  2  0
 40 41  1  0
 41 42  1  0
 41 43  1  0
  7 44  2  0
 44  2  1  0
 19 15  2  0
 33 23  1  0
 43 38  2  0
 33 28  1  0
  1 45  1  0
  1 46  1  0
  1 47  1  0
  3 48  1  0
  5 49  1  0
  8 50  1  0
  8 51  1  0
  9 52  1  0
 10 53  1  0
 10 54  1  0
 11 55  1  0
 11 56  1  0
 12 57  1  0
 13 58  1  0
 14 59  1  0
 14 60  1  0
 17 61  1  0
 22 62  1  0
 24 63  1  0
 25 64  1  0
 29 65  1  0
 30 66  1  0
 31 67  1  0
 32 68  1  0
 34 69  1  0
 39 70  1  0
 40 71  1  0
 42 72  1  0
 42 73  1  0
 42 74  1  0
M  END
>  <Energy>  (825) 
14.53847991358413

>  <compound_id>  (825) 
4386

>  <target_id>  (825) 
1

>  <reference_id>  (825) 
154

>  <inspiration_ids>  (825) 
[154, 129]

>  <energy_score>  (825) 
-51.631306842879155

>  <distance_score>  (825) 
1.9323376635088034

>  <path>  (825) 
/opt/xchem-fragalysis-2/maxwin/BulkDock/SCRATCH/505735/C4386-P154/C4386-P154.minimised.mol

>  <scratch_subdir>  (825) 
/opt/xchem-fragalysis-2/maxwin/BulkDock/SCRATCH/505735/C4386-P154

>  <fragmenstein_runtime>  (825) 
27.107687950134277

>  <fragmenstein_outcome>  (825) 
too moved

>  <fragmenstein_mode>  (825) 
expansion

>  <fragmenstein_error>  (825) 


$$$$
C4386-P129
     RDKit          3D

 74 78  0  0  0  0  0  0  0  0999 V2000
   -1.0238   -7.4526   35.2826 C   0  0  0  0  0  0  0  0  0  0  0  0
    0.3849   -7.0441   35.5769 C   0  0  0  0  0  0  0  0  0  0  0  0
    0.8953   -7.1548   36.8508 C   0  0  0  0  0  0  0  0  0  0  0  0
    2.1687   -6.6808   37.0106 C   0  0  0  0  0  0  0  0  0  0  0  0
    2.7714   -6.7479   38.2253 O   0  0  0  0  0  0  0  0  0  0  0  0
    2.9231   -6.1320   36.0515 N   0  0  0  0  0  0  0  0  0  0  0  0
    2.3325   -6.0657   34.8460 C   0  0  0  0  0  0  0  0  0  0  0  0
    3.1147   -5.4607   33.7210 C   0  0  0  0  0  0  0  0  0  0  0  0
    2.9538   -3.9409   33.6397 C   0  0  0  0  0  0  0  0  0  0  0  0
    3.5671   -3.4360   32.3120 C   0  0  0  0  0  0  0  0  0  0  0  0
    2.5533   -3.3658   31.1561 C   0  0  0  0  0  0  0  0  0  0  0  0
    3.2961   -3.0716   29.9374 N   0  0  0  0  0  0  0  0  0  0  0  0
    2.5898   -2.9233   28.6892 C   0  0  0  0  0  0  0  0  0  0  0  0
    1.8921   -4.1598   28.4325 N   0  0  0  0  0  0  0  0  0  0  0  0
    3.6018   -2.7009   27.6165 C   0  0  0  0  0  0  0  0  0  0  0  0
    3.6207   -1.4853   26.9803 O   0  0  0  0  0  0  0  0  0  0  0  0
    4.6104   -1.6124   26.0515 C   0  0  0  0  0  0  0  0  0  0  0  0
    5.2393   -2.7670   26.0601 N   0  0  0  0  0  0  0  0  0  0  0  0
    4.6228   -3.4695   27.0866 C   0  0  0  0  0  0  0  0  0  0  0  0
    5.0375   -4.8163   27.5172 C   0  0  0  0  0  0  0  0  0  0  0  0
    4.5545   -5.3115   28.4953 O   0  0  0  0  0  0  0  0  0  0  0  0
    6.0450   -5.3014   26.6249 N   0  0  0  0  0  0  0  0  0  0  0  0
    6.6873   -6.5002   26.5697 C   0  0  0  0  0  0  0  0  0  0  0  0
    6.7625   -7.1406   25.3965 C   0  0  0  0  0  0  0  0  0  0  0  0
    7.2238   -8.4245   25.2987 N   0  0  0  0  0  0  0  0  0  0  0  0
    7.6598   -9.1812   26.3572 C   0  0  0  0  0  0  0  0  0  0  0  0
    8.0120  -10.3473   26.2254 O   0  0  0  0  0  0  0  0  0  0  0  0
    7.6907   -8.4954   27.6746 C   0  0  0  0  0  0  0  0  0  0  0  0
    8.2161   -9.1702   28.7847 C   0  0  0  0  0  0  0  0  0  0  0  0
    8.3234   -8.5131   30.0075 C   0  0  0  0  0  0  0  0  0  0  0  0
    7.9180   -7.1855   30.1160 C   0  0  0  0  0  0  0  0  0  0  0  0
    7.3746   -6.5214   29.0111 C   0  0  0  0  0  0  0  0  0  0  0  0
    7.2229   -7.1719   27.7764 C   0  0  0  0  0  0  0  0  0  0  0  0
    3.6950   -3.2791   34.7584 N   0  0  0  0  0  0  0  0  0  0  0  0
    2.8535   -2.0185   35.5344 S   0  0  0  0  0  0  0  0  0  0  0  0
    3.8088   -1.2373   36.2861 O   0  0  0  0  0  0  0  0  0  0  0  0
    1.7023   -2.6264   36.1686 O   0  0  0  0  0  0  0  0  0  0  0  0
    2.1818   -0.9482   34.3148 C   0  0  0  0  0  0  0  0  0  0  0  0
    0.7929   -0.7790   34.0990 C   0  0  0  0  0  0  0  0  0  0  0  0
    0.7018    0.0247   32.9873 C   0  0  0  0  0  0  0  0  0  0  0  0
    1.9839    0.3043   32.6170 N   0  0  0  0  0  0  0  0  0  0  0  0
    2.4075    1.1317   31.5127 C   0  0  0  0  0  0  0  0  0  0  0  0
    2.9085   -0.3057   33.3783 N   0  0  0  0  0  0  0  0  0  0  0  0
    1.0946   -6.5087   34.5581 N   0  0  0  0  0  0  0  0  0  0  0  0
   -1.3195   -8.3063   35.8960 H   0  0  0  0  0  0  0  0  0  0  0  0
   -1.6962   -6.6162   35.4912 H   0  0  0  0  0  0  0  0  0  0  0  0
   -1.1332   -7.7324   34.2301 H   0  0  0  0  0  0  0  0  0  0  0  0
    0.3390   -7.5870   37.6714 H   0  0  0  0  0  0  0  0  0  0  0  0
    3.6200   -6.3108   38.0403 H   0  0  0  0  0  0  0  0  0  0  0  0
    2.7570   -5.9133   32.7901 H   0  0  0  0  0  0  0  0  0  0  0  0
    4.1714   -5.7309   33.8357 H   0  0  0  0  0  0  0  0  0  0  0  0
    1.8880   -3.6885   33.6825 H   0  0  0  0  0  0  0  0  0  0  0  0
    4.0159   -2.4451   32.4431 H   0  0  0  0  0  0  0  0  0  0  0  0
    4.4048   -4.0901   32.0299 H   0  0  0  0  0  0  0  0  0  0  0  0
    2.0380   -4.3283   31.0797 H   0  0  0  0  0  0  0  0  0  0  0  0
    1.8079   -2.5889   31.3532 H   0  0  0  0  0  0  0  0  0  0  0  0
    3.8673   -2.2386   30.0840 H   0  0  0  0  0  0  0  0  0  0  0  0
    1.8860   -2.0845   28.7249 H   0  0  0  0  0  0  0  0  0  0  0  0
    2.5641   -4.8895   28.6888 H   0  0  0  0  0  0  0  0  0  0  0  0
    1.1278   -4.2392   29.0929 H   0  0  0  0  0  0  0  0  0  0  0  0
    4.7668   -0.7684   25.3913 H   0  0  0  0  0  0  0  0  0  0  0  0
    6.1461   -4.6437   25.8486 H   0  0  0  0  0  0  0  0  0  0  0  0
    6.3600   -6.7271   24.4756 H   0  0  0  0  0  0  0  0  0  0  0  0
    7.0219   -8.9243   24.4298 H   0  0  0  0  0  0  0  0  0  0  0  0
    8.5549  -10.2002   28.6904 H   0  0  0  0  0  0  0  0  0  0  0  0
    8.7376   -9.0327   30.8679 H   0  0  0  0  0  0  0  0  0  0  0  0
    8.0236   -6.6612   31.0627 H   0  0  0  0  0  0  0  0  0  0  0  0
    7.0919   -5.4794   29.1319 H   0  0  0  0  0  0  0  0  0  0  0  0
    3.9985   -3.9282   35.4904 H   0  0  0  0  0  0  0  0  0  0  0  0
   -0.0215   -1.2036   34.6713 H   0  0  0  0  0  0  0  0  0  0  0  0
   -0.1507    0.4215   32.4531 H   0  0  0  0  0  0  0  0  0  0  0  0
    3.0456    1.9281   31.9036 H   0  0  0  0  0  0  0  0  0  0  0  0
    1.5302    1.5623   31.0237 H   0  0  0  0  0  0  0  0  0  0  0  0
    2.9597    0.5057   30.8071 H   0  0  0  0  0  0  0  0  0  0  0  0
  1  2  1  0
  2  3  2  0
  3  4  1  0
  4  5  1  0
  4  6  2  0
  6  7  1  0
  7  8  1  0
  8  9  1  0
  9 10  1  0
 10 11  1  0
 11 12  1  0
 12 13  1  0
 13 14  1  0
 13 15  1  0
 15 16  1  0
 16 17  1  0
 17 18  2  0
 18 19  1  0
 19 20  1  0
 20 21  2  0
 20 22  1  0
 22 23  1  0
 23 24  2  0
 24 25  1  0
 25 26  1  0
 26 27  2  0
 26 28  1  0
 28 29  2  0
 29 30  1  0
 30 31  2  0
 31 32  1  0
 32 33  2  0
  9 34  1  0
 34 35  1  0
 35 36  2  0
 35 37  2  0
 35 38  1  0
 38 39  1  0
 39 40  2  0
 40 41  1  0
 41 42  1  0
 41 43  1  0
  7 44  2  0
 44  2  1  0
 19 15  2  0
 33 23  1  0
 43 38  2  0
 33 28  1  0
  1 45  1  0
  1 46  1  0
  1 47  1  0
  3 48  1  0
  5 49  1  0
  8 50  1  0
  8 51  1  0
  9 52  1  0
 10 53  1  0
 10 54  1  0
 11 55  1  0
 11 56  1  0
 12 57  1  0
 13 58  1  0
 14 59  1  0
 14 60  1  0
 17 61  1  0
 22 62  1  0
 24 63  1  0
 25 64  1  0
 29 65  1  0
 30 66  1  0
 31 67  1  0
 32 68  1  0
 34 69  1  0
 39 70  1  0
 40 71  1  0
 42 72  1  0
 42 73  1  0
 42 74  1  0
M  END
>  <Energy>  (826) 
-19.271379442030234

>  <compound_id>  (826) 
4386

>  <target_id>  (826) 
1

>  <reference_id>  (826) 
129

>  <inspiration_ids>  (826) 
[154, 129]

>  <energy_score>  (826) 
-95.18227746663348

>  <distance_score>  (826) 
2.109849987364131

>  <path>  (826) 
/opt/xchem-fragalysis-2/maxwin/BulkDock/SCRATCH/505735/C4386-P129/C4386-P129.minimised.mol

>  <scratch_subdir>  (826) 
/opt/xchem-fragalysis-2/maxwin/BulkDock/SCRATCH/505735/C4386-P129

>  <fragmenstein_runtime>  (826) 
37.70151233673096

>  <fragmenstein_outcome>  (826) 
too moved

>  <fragmenstein_mode>  (826) 
expansion

>  <fragmenstein_error>  (826) 


$$$$
C4387-P154
     RDKit          3D

 71 75  0  0  0  0  0  0  0  0999 V2000
    0.8911    2.6045   32.7333 C   0  0  0  0  0  0  0  0  0  0  0  0
   -0.0889    1.4774   32.8226 C   0  0  0  0  0  0  0  0  0  0  0  0
   -0.7480    1.2052   34.0035 C   0  0  0  0  0  0  0  0  0  0  0  0
   -1.6552    0.1760   33.9501 C   0  0  0  0  0  0  0  0  0  0  0  0
   -2.3848   -0.1824   35.0432 O   0  0  0  0  0  0  0  0  0  0  0  0
   -1.9051   -0.5540   32.8577 N   0  0  0  0  0  0  0  0  0  0  0  0
   -1.1979   -0.2315   31.7620 C   0  0  0  0  0  0  0  0  0  0  0  0
   -1.2670   -1.1805   30.6001 C   0  0  0  0  0  0  0  0  0  0  0  0
   -0.2683   -2.3235   30.8337 C   0  0  0  0  0  0  0  0  0  0  0  0
   -0.1095   -3.1554   29.5354 C   0  0  0  0  0  0  0  0  0  0  0  0
    0.7906   -2.5374   28.5411 N   0  0  0  0  0  0  0  0  0  0  0  0
    2.1561   -3.0414   28.6599 C   0  0  0  0  0  0  0  0  0  0  0  0
    2.7951   -2.2627   29.6897 N   0  0  0  0  0  0  0  0  0  0  0  0
    2.9420   -2.8798   27.4092 C   0  0  0  0  0  0  0  0  0  0  0  0
    2.7707   -1.7589   26.6354 O   0  0  0  0  0  0  0  0  0  0  0  0
    3.6811   -1.9085   25.6349 C   0  0  0  0  0  0  0  0  0  0  0  0
    4.3921   -3.0131   25.6820 N   0  0  0  0  0  0  0  0  0  0  0  0
    3.9416   -3.6359   26.8356 C   0  0  0  0  0  0  0  0  0  0  0  0
    4.5084   -4.8906   27.3371 C   0  0  0  0  0  0  0  0  0  0  0  0
    4.1536   -5.3503   28.3843 O   0  0  0  0  0  0  0  0  0  0  0  0
    5.4543   -5.3701   26.3795 N   0  0  0  0  0  0  0  0  0  0  0  0
    6.2945   -6.4385   26.4118 C   0  0  0  0  0  0  0  0  0  0  0  0
    6.4397   -7.1502   25.2875 C   0  0  0  0  0  0  0  0  0  0  0  0
    7.1422   -8.3215   25.2497 N   0  0  0  0  0  0  0  0  0  0  0  0
    7.7985   -8.8696   26.3218 C   0  0  0  0  0  0  0  0  0  0  0  0
    8.3747   -9.9483   26.2488 O   0  0  0  0  0  0  0  0  0  0  0  0
    7.7804   -8.0636   27.5716 C   0  0  0  0  0  0  0  0  0  0  0  0
    8.5555   -8.4826   28.6606 C   0  0  0  0  0  0  0  0  0  0  0  0
    8.6108   -7.7044   29.8143 C   0  0  0  0  0  0  0  0  0  0  0  0
    7.8979   -6.5118   29.8761 C   0  0  0  0  0  0  0  0  0  0  0  0
    7.1258   -6.0951   28.7867 C   0  0  0  0  0  0  0  0  0  0  0  0
    7.0316   -6.8713   27.6208 C   0  0  0  0  0  0  0  0  0  0  0  0
   -0.7386   -3.1750   31.9823 N   0  0  0  0  0  0  0  0  0  0  0  0
    0.4676   -4.0736   32.7887 S   0  0  0  0  0  0  0  0  0  0  0  0
    0.2100   -3.9593   34.2060 O   0  0  0  0  0  0  0  0  0  0  0  0
    1.7608   -3.7800   32.2104 O   0  0  0  0  0  0  0  0  0  0  0  0
    0.1360   -5.7384   32.3852 C   0  0  0  0  0  0  0  0  0  0  0  0
   -0.5011   -6.6713   33.2315 C   0  0  0  0  0  0  0  0  0  0  0  0
   -0.7914   -7.7356   32.4112 C   0  0  0  0  0  0  0  0  0  0  0  0
   -0.2463   -7.4382   31.2035 N   0  0  0  0  0  0  0  0  0  0  0  0
   -0.2770   -8.2180   29.9999 C   0  0  0  0  0  0  0  0  0  0  0  0
    0.2942   -6.2227   31.1413 N   0  0  0  0  0  0  0  0  0  0  0  0
   -0.3054    0.7693   31.6974 N   0  0  0  0  0  0  0  0  0  0  0  0
    1.3232    2.6698   31.7295 H   0  0  0  0  0  0  0  0  0  0  0  0
    0.3956    3.5554   32.9524 H   0  0  0  0  0  0  0  0  0  0  0  0
    1.7081    2.4529   33.4456 H   0  0  0  0  0  0  0  0  0  0  0  0
   -0.5687    1.7809   34.9001 H   0  0  0  0  0  0  0  0  0  0  0  0
   -1.9714    0.2048   35.8296 H   0  0  0  0  0  0  0  0  0  0  0  0
   -1.0355   -0.6319   29.6798 H   0  0  0  0  0  0  0  0  0  0  0  0
   -2.2869   -1.5670   30.5092 H   0  0  0  0  0  0  0  0  0  0  0  0
    0.6782   -1.8644   31.1318 H   0  0  0  0  0  0  0  0  0  0  0  0
   -1.0991   -3.2517   29.0712 H   0  0  0  0  0  0  0  0  0  0  0  0
    0.1969   -4.1807   29.7416 H   0  0  0  0  0  0  0  0  0  0  0  0
    0.4685   -2.8155   27.6094 H   0  0  0  0  0  0  0  0  0  0  0  0
    2.1533   -4.1028   28.9266 H   0  0  0  0  0  0  0  0  0  0  0  0
    2.3949   -1.3312   29.6307 H   0  0  0  0  0  0  0  0  0  0  0  0
    2.5454   -2.6564   30.5975 H   0  0  0  0  0  0  0  0  0  0  0  0
    3.7406   -1.1125   24.9080 H   0  0  0  0  0  0  0  0  0  0  0  0
    5.4385   -4.7576   25.5609 H   0  0  0  0  0  0  0  0  0  0  0  0
    5.9244   -6.8948   24.3646 H   0  0  0  0  0  0  0  0  0  0  0  0
    7.0269   -8.8976   24.4150 H   0  0  0  0  0  0  0  0  0  0  0  0
    9.1299   -9.4037   28.5958 H   0  0  0  0  0  0  0  0  0  0  0  0
    9.2231   -8.0154   30.6562 H   0  0  0  0  0  0  0  0  0  0  0  0
    7.9524   -5.8889   30.7659 H   0  0  0  0  0  0  0  0  0  0  0  0
    6.6288   -5.1324   28.8640 H   0  0  0  0  0  0  0  0  0  0  0  0
   -1.2329   -2.6308   32.7064 H   0  0  0  0  0  0  0  0  0  0  0  0
   -0.7847   -6.5391   34.2673 H   0  0  0  0  0  0  0  0  0  0  0  0
   -1.3304   -8.6522   32.5913 H   0  0  0  0  0  0  0  0  0  0  0  0
   -0.6684   -9.2108   30.2175 H   0  0  0  0  0  0  0  0  0  0  0  0
    0.7317   -8.2798   29.5886 H   0  0  0  0  0  0  0  0  0  0  0  0
   -0.9323   -7.6982   29.3026 H   0  0  0  0  0  0  0  0  0  0  0  0
  1  2  1  0
  2  3  2  0
  3  4  1  0
  4  5  1  0
  4  6  2  0
  6  7  1  0
  7  8  1  0
  8  9  1  0
  9 10  1  0
 10 11  1  0
 11 12  1  0
 12 13  1  0
 12 14  1  0
 14 15  1  0
 15 16  1  0
 16 17  2  0
 17 18  1  0
 18 19  1  0
 19 20  2  0
 19 21  1  0
 21 22  1  0
 22 23  2  0
 23 24  1  0
 24 25  1  0
 25 26  2  0
 25 27  1  0
 27 28  2  0
 28 29  1  0
 29 30  2  0
 30 31  1  0
 31 32  2  0
  9 33  1  0
 33 34  1  0
 34 35  2  0
 34 36  2  0
 34 37  1  0
 37 38  1  0
 38 39  2  0
 39 40  1  0
 40 41  1  0
 40 42  1  0
  7 43  2  0
 43  2  1  0
 18 14  2  0
 32 22  1  0
 42 37  2  0
 32 27  1  0
  1 44  1  0
  1 45  1  0
  1 46  1  0
  3 47  1  0
  5 48  1  0
  8 49  1  0
  8 50  1  0
  9 51  1  0
 10 52  1  0
 10 53  1  0
 11 54  1  0
 12 55  1  0
 13 56  1  0
 13 57  1  0
 16 58  1  0
 21 59  1  0
 23 60  1  0
 24 61  1  0
 28 62  1  0
 29 63  1  0
 30 64  1  0
 31 65  1  0
 33 66  1  0
 38 67  1  0
 39 68  1  0
 41 69  1  0
 41 70  1  0
 41 71  1  0
M  END
>  <Energy>  (827) 
-0.88587234162175665

>  <compound_id>  (827) 
4387

>  <target_id>  (827) 
1

>  <reference_id>  (827) 
154

>  <inspiration_ids>  (827) 
[154, 130]

>  <energy_score>  (827) 
-92.09566104156903

>  <distance_score>  (827) 
1.7782134701249457

>  <path>  (827) 
/opt/xchem-fragalysis-2/maxwin/BulkDock/SCRATCH/505735/C4387-P154/C4387-P154.minimised.mol

>  <scratch_subdir>  (827) 
/opt/xchem-fragalysis-2/maxwin/BulkDock/SCRATCH/505735/C4387-P154

>  <fragmenstein_runtime>  (827) 
23.917033195495605

>  <fragmenstein_outcome>  (827) 
too moved

>  <fragmenstein_mode>  (827) 
expansion

>  <fragmenstein_error>  (827) 


$$$$
C4387-P130
     RDKit          3D

 71 75  0  0  0  0  0  0  0  0999 V2000
   -0.1466    1.4440   32.4708 C   0  0  0  0  0  0  0  0  0  0  0  0
   -0.9262    0.1714   32.4599 C   0  0  0  0  0  0  0  0  0  0  0  0
   -1.6746   -0.2436   33.5396 C   0  0  0  0  0  0  0  0  0  0  0  0
   -2.2600   -1.4795   33.4117 C   0  0  0  0  0  0  0  0  0  0  0  0
   -2.9828   -1.9866   34.4474 O   0  0  0  0  0  0  0  0  0  0  0  0
   -2.1566   -2.2773   32.3453 N   0  0  0  0  0  0  0  0  0  0  0  0
   -1.3735   -1.7929   31.3655 C   0  0  0  0  0  0  0  0  0  0  0  0
   -1.0174   -2.6836   30.2200 C   0  0  0  0  0  0  0  0  0  0  0  0
    0.3360   -3.3547   30.4904 C   0  0  0  0  0  0  0  0  0  0  0  0
    0.8783   -3.9772   29.1765 C   0  0  0  0  0  0  0  0  0  0  0  0
    1.3518   -3.0958   28.1082 N   0  0  0  0  0  0  0  0  0  0  0  0
    2.5019   -2.3143   28.4956 C   0  0  0  0  0  0  0  0  0  0  0  0
    1.9962   -0.9855   28.7460 N   0  0  0  0  0  0  0  0  0  0  0  0
    3.5367   -2.3013   27.4320 C   0  0  0  0  0  0  0  0  0  0  0  0
    3.7105   -1.1593   26.6817 O   0  0  0  0  0  0  0  0  0  0  0  0
    4.6251   -1.5159   25.7435 C   0  0  0  0  0  0  0  0  0  0  0  0
    5.0912   -2.7357   25.8499 N   0  0  0  0  0  0  0  0  0  0  0  0
    4.4161   -3.2422   26.9480 C   0  0  0  0  0  0  0  0  0  0  0  0
    4.6632   -4.5829   27.4473 C   0  0  0  0  0  0  0  0  0  0  0  0
    4.2736   -4.9590   28.4813 O   0  0  0  0  0  0  0  0  0  0  0  0
    5.5752   -5.2718   26.4115 N   0  0  0  0  0  0  0  0  0  0  0  0
    6.2353   -6.4549   26.4675 C   0  0  0  0  0  0  0  0  0  0  0  0
    6.2906   -7.2084   25.3619 C   0  0  0  0  0  0  0  0  0  0  0  0
    6.9146   -8.4234   25.3366 N   0  0  0  0  0  0  0  0  0  0  0  0
    7.5979   -8.9620   26.3981 C   0  0  0  0  0  0  0  0  0  0  0  0
    8.1258  -10.0659   26.3396 O   0  0  0  0  0  0  0  0  0  0  0  0
    7.6678   -8.1161   27.6205 C   0  0  0  0  0  0  0  0  0  0  0  0
    8.4694   -8.5313   28.6877 C   0  0  0  0  0  0  0  0  0  0  0  0
    8.5856   -7.7372   29.8275 C   0  0  0  0  0  0  0  0  0  0  0  0
    7.9189   -6.5210   29.8916 C   0  0  0  0  0  0  0  0  0  0  0  0
    7.1404   -6.0957   28.8135 C   0  0  0  0  0  0  0  0  0  0  0  0
    6.9777   -6.8925   27.6676 C   0  0  0  0  0  0  0  0  0  0  0  0
    0.0919   -4.4324   31.4504 N   0  0  0  0  0  0  0  0  0  0  0  0
    1.1861   -4.7607   32.6908 S   0  0  0  0  0  0  0  0  0  0  0  0
    0.9641   -3.8647   33.7988 O   0  0  0  0  0  0  0  0  0  0  0  0
    2.4806   -5.0409   32.1178 O   0  0  0  0  0  0  0  0  0  0  0  0
    0.5223   -6.3070   33.1379 C   0  0  0  0  0  0  0  0  0  0  0  0
   -0.1702   -6.5948   34.3272 C   0  0  0  0  0  0  0  0  0  0  0  0
   -1.0548   -7.5825   33.9633 C   0  0  0  0  0  0  0  0  0  0  0  0
   -0.8354   -7.8151   32.6452 N   0  0  0  0  0  0  0  0  0  0  0  0
   -1.7108   -8.4332   31.7075 C   0  0  0  0  0  0  0  0  0  0  0  0
    0.1926   -7.1445   32.1357 N   0  0  0  0  0  0  0  0  0  0  0  0
   -0.7711   -0.5910   31.3649 N   0  0  0  0  0  0  0  0  0  0  0  0
   -0.1216    1.8958   31.4750 H   0  0  0  0  0  0  0  0  0  0  0  0
   -0.5648    2.1671   33.1756 H   0  0  0  0  0  0  0  0  0  0  0  0
    0.8837    1.2350   32.7770 H   0  0  0  0  0  0  0  0  0  0  0  0
   -1.7755    0.3365   34.4452 H   0  0  0  0  0  0  0  0  0  0  0  0
   -3.0740   -2.9371   34.2122 H   0  0  0  0  0  0  0  0  0  0  0  0
   -0.9834   -2.0693   29.3131 H   0  0  0  0  0  0  0  0  0  0  0  0
   -1.8106   -3.4187   30.0703 H   0  0  0  0  0  0  0  0  0  0  0  0
    1.0565   -2.6465   30.9137 H   0  0  0  0  0  0  0  0  0  0  0  0
    0.0719   -4.5814   28.7536 H   0  0  0  0  0  0  0  0  0  0  0  0
    1.6755   -4.6936   29.4126 H   0  0  0  0  0  0  0  0  0  0  0  0
    0.6212   -2.4569   27.8031 H   0  0  0  0  0  0  0  0  0  0  0  0
    2.9741   -2.6868   29.4126 H   0  0  0  0  0  0  0  0  0  0  0  0
    1.6979   -0.5768   27.8632 H   0  0  0  0  0  0  0  0  0  0  0  0
    1.2075   -0.9884   29.3806 H   0  0  0  0  0  0  0  0  0  0  0  0
    4.8466   -0.7935   24.9800 H   0  0  0  0  0  0  0  0  0  0  0  0
    5.7821   -4.6196   25.6519 H   0  0  0  0  0  0  0  0  0  0  0  0
    5.7859   -6.9342   24.4400 H   0  0  0  0  0  0  0  0  0  0  0  0
    6.7779   -9.0047   24.5067 H   0  0  0  0  0  0  0  0  0  0  0  0
    9.0136   -9.4697   28.6158 H   0  0  0  0  0  0  0  0  0  0  0  0
    9.2093   -8.0581   30.6571 H   0  0  0  0  0  0  0  0  0  0  0  0
    8.0211   -5.8871   30.7689 H   0  0  0  0  0  0  0  0  0  0  0  0
    6.6968   -5.1094   28.8885 H   0  0  0  0  0  0  0  0  0  0  0  0
   -0.1619   -5.3316   31.0261 H   0  0  0  0  0  0  0  0  0  0  0  0
   -0.1634   -6.0434   35.2581 H   0  0  0  0  0  0  0  0  0  0  0  0
   -1.8578   -8.0525   34.5148 H   0  0  0  0  0  0  0  0  0  0  0  0
   -1.2843   -9.3804   31.3851 H   0  0  0  0  0  0  0  0  0  0  0  0
   -2.6843   -8.5432   32.1596 H   0  0  0  0  0  0  0  0  0  0  0  0
   -1.7992   -7.7487   30.8591 H   0  0  0  0  0  0  0  0  0  0  0  0
  1  2  1  0
  2  3  2  0
  3  4  1  0
  4  5  1  0
  4  6  2  0
  6  7  1  0
  7  8  1  0
  8  9  1  0
  9 10  1  0
 10 11  1  0
 11 12  1  0
 12 13  1  0
 12 14  1  0
 14 15  1  0
 15 16  1  0
 16 17  2  0
 17 18  1  0
 18 19  1  0
 19 20  2  0
 19 21  1  0
 21 22  1  0
 22 23  2  0
 23 24  1  0
 24 25  1  0
 25 26  2  0
 25 27  1  0
 27 28  2  0
 28 29  1  0
 29 30  2  0
 30 31  1  0
 31 32  2  0
  9 33  1  0
 33 34  1  0
 34 35  2  0
 34 36  2  0
 34 37  1  0
 37 38  1  0
 38 39  2  0
 39 40  1  0
 40 41  1  0
 40 42  1  0
  7 43  2  0
 43  2  1  0
 18 14  2  0
 32 22  1  0
 42 37  2  0
 32 27  1  0
  1 44  1  0
  1 45  1  0
  1 46  1  0
  3 47  1  0
  5 48  1  0
  8 49  1  0
  8 50  1  0
  9 51  1  0
 10 52  1  0
 10 53  1  0
 11 54  1  0
 12 55  1  0
 13 56  1  0
 13 57  1  0
 16 58  1  0
 21 59  1  0
 23 60  1  0
 24 61  1  0
 28 62  1  0
 29 63  1  0
 30 64  1  0
 31 65  1  0
 33 66  1  0
 38 67  1  0
 39 68  1  0
 41 69  1  0
 41 70  1  0
 41 71  1  0
M  END
>  <Energy>  (828) 
21.344563186431714

>  <compound_id>  (828) 
4387

>  <target_id>  (828) 
1

>  <reference_id>  (828) 
130

>  <inspiration_ids>  (828) 
[154, 130]

>  <energy_score>  (828) 
-69.32965938708986

>  <distance_score>  (828) 
1.5695087176127123

>  <path>  (828) 
/opt/xchem-fragalysis-2/maxwin/BulkDock/SCRATCH/505735/C4387-P130/C4387-P130.minimised.mol

>  <scratch_subdir>  (828) 
/opt/xchem-fragalysis-2/maxwin/BulkDock/SCRATCH/505735/C4387-P130

>  <fragmenstein_runtime>  (828) 
14.512995481491089

>  <fragmenstein_outcome>  (828) 
too moved

>  <fragmenstein_mode>  (828) 
expansion

>  <fragmenstein_error>  (828) 


$$$$
C4388-P154
     RDKit          3D

 70 74  0  0  0  0  0  0  0  0999 V2000
   -2.4891   -1.3307   31.4943 C   0  0  0  0  0  0  0  0  0  0  0  0
   -1.4024   -0.7290   30.6797 C   0  0  0  0  0  0  0  0  0  0  0  0
   -1.0234    0.5667   30.8481 C   0  0  0  0  0  0  0  0  0  0  0  0
    0.0363    0.9820   30.0948 C   0  0  0  0  0  0  0  0  0  0  0  0
    0.3702    2.2967   30.0829 O   0  0  0  0  0  0  0  0  0  0  0  0
    0.8295    0.1839   29.3816 N   0  0  0  0  0  0  0  0  0  0  0  0
    0.4541   -1.1064   29.3920 C   0  0  0  0  0  0  0  0  0  0  0  0
    1.4923   -2.1541   29.1046 C   0  0  0  0  0  0  0  0  0  0  0  0
    0.9653   -3.4623   28.4742 C   0  0  0  0  0  0  0  0  0  0  0  0
    0.5305   -3.1590   27.0340 C   0  0  0  0  0  0  0  0  0  0  0  0
    1.3141   -3.8275   25.9071 C   0  0  0  0  0  0  0  0  0  0  0  0
    2.5427   -3.1760   25.5285 N   0  0  0  0  0  0  0  0  0  0  0  0
    3.5566   -3.4530   26.4949 C   0  0  0  0  0  0  0  0  0  0  0  0
    3.9473   -4.8204   26.2686 N   0  0  0  0  0  0  0  0  0  0  0  0
    4.6288   -2.4502   26.4519 C   0  0  0  0  0  0  0  0  0  0  0  0
    4.2801   -1.1592   26.1680 O   0  0  0  0  0  0  0  0  0  0  0  0
    5.3953   -0.4616   26.4907 C   0  0  0  0  0  0  0  0  0  0  0  0
    6.4109   -1.1706   26.9315 N   0  0  0  0  0  0  0  0  0  0  0  0
    5.9230   -2.4492   26.9257 C   0  0  0  0  0  0  0  0  0  0  0  0
    6.5160   -3.6235   27.5375 C   0  0  0  0  0  0  0  0  0  0  0  0
    6.6431   -3.6969   28.6974 O   0  0  0  0  0  0  0  0  0  0  0  0
    6.7973   -4.6705   26.4261 N   0  0  0  0  0  0  0  0  0  0  0  0
    7.1813   -5.9831   26.5160 C   0  0  0  0  0  0  0  0  0  0  0  0
    6.8801   -6.7630   25.4571 C   0  0  0  0  0  0  0  0  0  0  0  0
    7.0556   -8.1192   25.4467 N   0  0  0  0  0  0  0  0  0  0  0  0
    7.5472   -8.8285   26.5129 C   0  0  0  0  0  0  0  0  0  0  0  0
    7.6718  -10.0467   26.4880 O   0  0  0  0  0  0  0  0  0  0  0  0
    7.9354   -8.0224   27.7017 C   0  0  0  0  0  0  0  0  0  0  0  0
    8.5215   -8.6748   28.7887 C   0  0  0  0  0  0  0  0  0  0  0  0
    8.9757   -7.9494   29.8870 C   0  0  0  0  0  0  0  0  0  0  0  0
    8.8955   -6.5683   29.8709 C   0  0  0  0  0  0  0  0  0  0  0  0
    8.3575   -5.9209   28.7599 C   0  0  0  0  0  0  0  0  0  0  0  0
    7.7958   -6.6252   27.6885 C   0  0  0  0  0  0  0  0  0  0  0  0
   -0.1980   -4.0905   29.1581 N   0  0  0  0  0  0  0  0  0  0  0  0
   -0.1130   -4.4890   30.7765 S   0  0  0  0  0  0  0  0  0  0  0  0
    1.1916   -4.2044   31.3066 O   0  0  0  0  0  0  0  0  0  0  0  0
   -1.3548   -4.1349   31.4324 O   0  0  0  0  0  0  0  0  0  0  0  0
   -0.1871   -6.2215   30.8529 C   0  0  0  0  0  0  0  0  0  0  0  0
   -0.7505   -6.8633   31.9314 C   0  0  0  0  0  0  0  0  0  0  0  0
   -1.1369   -8.4470   31.4898 S   0  0  0  0  0  0  0  0  0  0  0  0
   -0.2806   -8.2347   30.0224 C   0  0  0  0  0  0  0  0  0  0  0  0
    0.1489   -7.0232   29.7701 N   0  0  0  0  0  0  0  0  0  0  0  0
   -0.6948   -1.5544   29.9180 N   0  0  0  0  0  0  0  0  0  0  0  0
   -2.9286   -2.1993   31.0033 H   0  0  0  0  0  0  0  0  0  0  0  0
   -2.0861   -1.6536   32.4601 H   0  0  0  0  0  0  0  0  0  0  0  0
   -3.2760   -0.5995   31.6954 H   0  0  0  0  0  0  0  0  0  0  0  0
   -1.5180    1.2013   31.5554 H   0  0  0  0  0  0  0  0  0  0  0  0
    1.1336    2.2870   29.4786 H   0  0  0  0  0  0  0  0  0  0  0  0
    2.0154   -2.3613   30.0427 H   0  0  0  0  0  0  0  0  0  0  0  0
    2.2465   -1.7011   28.4506 H   0  0  0  0  0  0  0  0  0  0  0  0
    1.7445   -4.2304   28.4888 H   0  0  0  0  0  0  0  0  0  0  0  0
    0.5432   -2.0806   26.8649 H   0  0  0  0  0  0  0  0  0  0  0  0
   -0.5046   -3.4829   26.9343 H   0  0  0  0  0  0  0  0  0  0  0  0
    1.5691   -4.8439   26.1685 H   0  0  0  0  0  0  0  0  0  0  0  0
    0.7066   -3.9147   25.0069 H   0  0  0  0  0  0  0  0  0  0  0  0
    2.3906   -2.1718   25.4333 H   0  0  0  0  0  0  0  0  0  0  0  0
    3.2179   -3.3915   27.5210 H   0  0  0  0  0  0  0  0  0  0  0  0
    4.2288   -4.9139   25.2992 H   0  0  0  0  0  0  0  0  0  0  0  0
    4.7296   -5.1016   26.8471 H   0  0  0  0  0  0  0  0  0  0  0  0
    5.3362    0.6086   26.3900 H   0  0  0  0  0  0  0  0  0  0  0  0
    6.6536   -4.2441   25.5123 H   0  0  0  0  0  0  0  0  0  0  0  0
    6.4144   -6.3707   24.5559 H   0  0  0  0  0  0  0  0  0  0  0  0
    6.7106   -8.6563   24.6432 H   0  0  0  0  0  0  0  0  0  0  0  0
    8.6475   -9.7513   28.7517 H   0  0  0  0  0  0  0  0  0  0  0  0
    9.4492   -8.4487   30.7271 H   0  0  0  0  0  0  0  0  0  0  0  0
    9.3036   -5.9837   30.6918 H   0  0  0  0  0  0  0  0  0  0  0  0
    8.4578   -4.8429   28.7413 H   0  0  0  0  0  0  0  0  0  0  0  0
   -0.6332   -4.8298   28.5980 H   0  0  0  0  0  0  0  0  0  0  0  0
   -1.0629   -6.4370   32.8763 H   0  0  0  0  0  0  0  0  0  0  0  0
   -0.1536   -9.0521   29.3259 H   0  0  0  0  0  0  0  0  0  0  0  0
  1  2  1  0
  2  3  2  0
  3  4  1  0
  4  5  1  0
  4  6  2  0
  6  7  1  0
  7  8  1  0
  8  9  1  0
  9 10  1  0
 10 11  1  0
 11 12  1  0
 12 13  1  0
 13 14  1  0
 13 15  1  0
 15 16  1  0
 16 17  1  0
 17 18  2  0
 18 19  1  0
 19 20  1  0
 20 21  2  0
 20 22  1  0
 22 23  1  0
 23 24  2  0
 24 25  1  0
 25 26  1  0
 26 27  2  0
 26 28  1  0
 28 29  2  0
 29 30  1  0
 30 31  2  0
 31 32  1  0
 32 33  2  0
  9 34  1  0
 34 35  1  0
 35 36  2  0
 35 37  2  0
 35 38  1  0
 38 39  2  0
 39 40  1  0
 40 41  1  0
 41 42  2  0
  7 43  2  0
 43  2  1  0
 19 15  2  0
 33 23  1  0
 42 38  1  0
 33 28  1  0
  1 44  1  0
  1 45  1  0
  1 46  1  0
  3 47  1  0
  5 48  1  0
  8 49  1  0
  8 50  1  0
  9 51  1  0
 10 52  1  0
 10 53  1  0
 11 54  1  0
 11 55  1  0
 12 56  1  0
 13 57  1  0
 14 58  1  0
 14 59  1  0
 17 60  1  0
 22 61  1  0
 24 62  1  0
 25 63  1  0
 29 64  1  0
 30 65  1  0
 31 66  1  0
 32 67  1  0
 34 68  1  0
 39 69  1  0
 41 70  1  0
M  END
>  <Energy>  (829) 
12.223196739417261

>  <compound_id>  (829) 
4388

>  <target_id>  (829) 
1

>  <reference_id>  (829) 
154

>  <inspiration_ids>  (829) 
[154, 131]

>  <energy_score>  (829) 
-125.51522751635764

>  <distance_score>  (829) 
1.799109219220351

>  <path>  (829) 
/opt/xchem-fragalysis-2/maxwin/BulkDock/SCRATCH/505735/C4388-P154/C4388-P154.minimised.mol

>  <scratch_subdir>  (829) 
/opt/xchem-fragalysis-2/maxwin/BulkDock/SCRATCH/505735/C4388-P154

>  <fragmenstein_runtime>  (829) 
11.721600532531738

>  <fragmenstein_outcome>  (829) 
too moved

>  <fragmenstein_mode>  (829) 
expansion

>  <fragmenstein_error>  (829) 


$$$$
C4388-P131
     RDKit          3D

 70 74  0  0  0  0  0  0  0  0999 V2000
   -2.8825   -0.9539   32.1530 C   0  0  0  0  0  0  0  0  0  0  0  0
   -1.8929   -0.3109   31.2525 C   0  0  0  0  0  0  0  0  0  0  0  0
   -1.0176    0.6547   31.6790 C   0  0  0  0  0  0  0  0  0  0  0  0
   -0.1478    1.1094   30.7249 C   0  0  0  0  0  0  0  0  0  0  0  0
    0.5248    2.2676   30.9065 O   0  0  0  0  0  0  0  0  0  0  0  0
    0.0863    0.5110   29.5675 N   0  0  0  0  0  0  0  0  0  0  0  0
   -0.7282   -0.5221   29.3252 C   0  0  0  0  0  0  0  0  0  0  0  0
   -0.1303   -1.7146   28.6613 C   0  0  0  0  0  0  0  0  0  0  0  0
   -0.4041   -2.9798   29.5111 C   0  0  0  0  0  0  0  0  0  0  0  0
    0.0050   -4.2233   28.7845 C   0  0  0  0  0  0  0  0  0  0  0  0
    1.4870   -4.5462   28.8410 C   0  0  0  0  0  0  0  0  0  0  0  0
    2.2073   -3.8234   27.8228 N   0  0  0  0  0  0  0  0  0  0  0  0
    3.3099   -3.0352   28.2956 C   0  0  0  0  0  0  0  0  0  0  0  0
    4.2128   -3.8882   29.0466 N   0  0  0  0  0  0  0  0  0  0  0  0
    4.0060   -2.5577   27.1023 C   0  0  0  0  0  0  0  0  0  0  0  0
    3.9717   -1.2388   26.7680 O   0  0  0  0  0  0  0  0  0  0  0  0
    4.6504   -1.2183   25.5897 C   0  0  0  0  0  0  0  0  0  0  0  0
    5.1234   -2.3757   25.1873 N   0  0  0  0  0  0  0  0  0  0  0  0
    4.6582   -3.2528   26.1177 C   0  0  0  0  0  0  0  0  0  0  0  0
    4.7221   -4.7038   26.0558 C   0  0  0  0  0  0  0  0  0  0  0  0
    3.7587   -5.3284   25.8626 O   0  0  0  0  0  0  0  0  0  0  0  0
    6.1520   -5.1546   26.3666 N   0  0  0  0  0  0  0  0  0  0  0  0
    6.6921   -6.3915   26.4109 C   0  0  0  0  0  0  0  0  0  0  0  0
    6.4165   -7.2765   25.4463 C   0  0  0  0  0  0  0  0  0  0  0  0
    6.8873   -8.5591   25.4810 N   0  0  0  0  0  0  0  0  0  0  0  0
    7.6231   -9.0826   26.5180 C   0  0  0  0  0  0  0  0  0  0  0  0
    8.0349  -10.2364   26.5058 O   0  0  0  0  0  0  0  0  0  0  0  0
    7.8522   -8.1723   27.6787 C   0  0  0  0  0  0  0  0  0  0  0  0
    8.4341   -8.6699   28.8492 C   0  0  0  0  0  0  0  0  0  0  0  0
    8.5769   -7.8419   29.9628 C   0  0  0  0  0  0  0  0  0  0  0  0
    8.1494   -6.5169   29.9076 C   0  0  0  0  0  0  0  0  0  0  0  0
    7.5751   -6.0147   28.7381 C   0  0  0  0  0  0  0  0  0  0  0  0
    7.4193   -6.8359   27.6085 C   0  0  0  0  0  0  0  0  0  0  0  0
    0.2659   -2.9936   30.8609 N   0  0  0  0  0  0  0  0  0  0  0  0
   -0.4671   -3.9769   32.0363 S   0  0  0  0  0  0  0  0  0  0  0  0
   -1.8939   -3.8542   31.8286 O   0  0  0  0  0  0  0  0  0  0  0  0
    0.1654   -3.6732   33.2989 O   0  0  0  0  0  0  0  0  0  0  0  0
   -0.2623   -5.7085   31.8484 C   0  0  0  0  0  0  0  0  0  0  0  0
   -0.9935   -6.5794   32.6310 C   0  0  0  0  0  0  0  0  0  0  0  0
   -1.0822   -8.1097   31.8954 S   0  0  0  0  0  0  0  0  0  0  0  0
    0.0343   -7.5747   30.7234 C   0  0  0  0  0  0  0  0  0  0  0  0
    0.4431   -6.3286   30.8238 N   0  0  0  0  0  0  0  0  0  0  0  0
   -1.8305   -0.8111   30.0238 N   0  0  0  0  0  0  0  0  0  0  0  0
   -3.6128   -0.2288   32.5168 H   0  0  0  0  0  0  0  0  0  0  0  0
   -3.4253   -1.7606   31.6551 H   0  0  0  0  0  0  0  0  0  0  0  0
   -2.3731   -1.3844   33.0215 H   0  0  0  0  0  0  0  0  0  0  0  0
   -1.0635    1.0957   32.6637 H   0  0  0  0  0  0  0  0  0  0  0  0
    0.9314    2.3878   30.0285 H   0  0  0  0  0  0  0  0  0  0  0  0
   -0.6099   -1.8003   27.6891 H   0  0  0  0  0  0  0  0  0  0  0  0
    0.9348   -1.5371   28.5150 H   0  0  0  0  0  0  0  0  0  0  0  0
   -1.4897   -3.0538   29.6393 H   0  0  0  0  0  0  0  0  0  0  0  0
   -0.5563   -5.0512   29.2066 H   0  0  0  0  0  0  0  0  0  0  0  0
   -0.3552   -4.1355   27.7666 H   0  0  0  0  0  0  0  0  0  0  0  0
    1.8786   -4.3878   29.8482 H   0  0  0  0  0  0  0  0  0  0  0  0
    1.6559   -5.6086   28.6453 H   0  0  0  0  0  0  0  0  0  0  0  0
    1.5977   -3.1698   27.3439 H   0  0  0  0  0  0  0  0  0  0  0  0
    2.9936   -2.1959   28.9227 H   0  0  0  0  0  0  0  0  0  0  0  0
    4.1197   -4.8178   28.6415 H   0  0  0  0  0  0  0  0  0  0  0  0
    3.8674   -3.9624   29.9984 H   0  0  0  0  0  0  0  0  0  0  0  0
    4.7125   -0.2732   25.0837 H   0  0  0  0  0  0  0  0  0  0  0  0
    6.7290   -4.3410   26.5605 H   0  0  0  0  0  0  0  0  0  0  0  0
    5.8288   -7.0191   24.5668 H   0  0  0  0  0  0  0  0  0  0  0  0
    6.6467   -9.1598   24.6891 H   0  0  0  0  0  0  0  0  0  0  0  0
    8.7652   -9.7043   28.9035 H   0  0  0  0  0  0  0  0  0  0  0  0
    9.0260   -8.2368   30.8717 H   0  0  0  0  0  0  0  0  0  0  0  0
    8.2635   -5.8728   30.7762 H   0  0  0  0  0  0  0  0  0  0  0  0
    7.2313   -4.9830   28.7350 H   0  0  0  0  0  0  0  0  0  0  0  0
    0.3541   -2.0542   31.2545 H   0  0  0  0  0  0  0  0  0  0  0  0
   -1.5713   -6.3451   33.5129 H   0  0  0  0  0  0  0  0  0  0  0  0
    0.3802   -8.2439   29.9482 H   0  0  0  0  0  0  0  0  0  0  0  0
  1  2  1  0
  2  3  2  0
  3  4  1  0
  4  5  1  0
  4  6  2  0
  6  7  1  0
  7  8  1  0
  8  9  1  0
  9 10  1  0
 10 11  1  0
 11 12  1  0
 12 13  1  0
 13 14  1  0
 13 15  1  0
 15 16  1  0
 16 17  1  0
 17 18  2  0
 18 19  1  0
 19 20  1  0
 20 21  2  0
 20 22  1  0
 22 23  1  0
 23 24  2  0
 24 25  1  0
 25 26  1  0
 26 27  2  0
 26 28  1  0
 28 29  2  0
 29 30  1  0
 30 31  2  0
 31 32  1  0
 32 33  2  0
  9 34  1  0
 34 35  1  0
 35 36  2  0
 35 37  2  0
 35 38  1  0
 38 39  2  0
 39 40  1  0
 40 41  1  0
 41 42  2  0
  7 43  2  0
 43  2  1  0
 19 15  2  0
 33 23  1  0
 42 38  1  0
 33 28  1  0
  1 44  1  0
  1 45  1  0
  1 46  1  0
  3 47  1  0
  5 48  1  0
  8 49  1  0
  8 50  1  0
  9 51  1  0
 10 52  1  0
 10 53  1  0
 11 54  1  0
 11 55  1  0
 12 56  1  0
 13 57  1  0
 14 58  1  0
 14 59  1  0
 17 60  1  0
 22 61  1  0
 24 62  1  0
 25 63  1  0
 29 64  1  0
 30 65  1  0
 31 66  1  0
 32 67  1  0
 34 68  1  0
 39 69  1  0
 41 70  1  0
M  END
>  <Energy>  (830) 
11.966549578166459

>  <compound_id>  (830) 
4388

>  <target_id>  (830) 
1

>  <reference_id>  (830) 
131

>  <inspiration_ids>  (830) 
[154, 131]

>  <energy_score>  (830) 
-125.77187467761178

>  <distance_score>  (830) 
1.6733364612432797

>  <path>  (830) 
/opt/xchem-fragalysis-2/maxwin/BulkDock/SCRATCH/505735/C4388-P131/C4388-P131.minimised.mol

>  <scratch_subdir>  (830) 
/opt/xchem-fragalysis-2/maxwin/BulkDock/SCRATCH/505735/C4388-P131

>  <fragmenstein_runtime>  (830) 
12.321001052856445

>  <fragmenstein_outcome>  (830) 
too moved

>  <fragmenstein_mode>  (830) 
expansion

>  <fragmenstein_error>  (830) 


$$$$
C4388-P154
     RDKit          3D

 70 74  0  0  0  0  0  0  0  0999 V2000
    6.5285   -2.2300   30.7193 C   0  0  0  0  0  0  0  0  0  0  0  0
    5.3701   -3.1035   31.0942 C   0  0  0  0  0  0  0  0  0  0  0  0
    5.1903   -3.5059   32.3965 C   0  0  0  0  0  0  0  0  0  0  0  0
    4.0914   -4.2927   32.6150 C   0  0  0  0  0  0  0  0  0  0  0  0
    3.8382   -4.7547   33.8670 O   0  0  0  0  0  0  0  0  0  0  0  0
    3.2068   -4.6871   31.6897 N   0  0  0  0  0  0  0  0  0  0  0  0
    3.4661   -4.2353   30.4481 C   0  0  0  0  0  0  0  0  0  0  0  0
    2.5061   -4.5943   29.3414 C   0  0  0  0  0  0  0  0  0  0  0  0
    1.1246   -3.9538   29.5985 C   0  0  0  0  0  0  0  0  0  0  0  0
    0.2821   -3.5022   28.3811 C   0  0  0  0  0  0  0  0  0  0  0  0
    0.9173   -3.5745   26.9892 C   0  0  0  0  0  0  0  0  0  0  0  0
    1.5202   -2.3724   26.4630 N   0  0  0  0  0  0  0  0  0  0  0  0
    2.4637   -1.7558   27.3199 C   0  0  0  0  0  0  0  0  0  0  0  0
    1.8791   -0.4486   27.5444 N   0  0  0  0  0  0  0  0  0  0  0  0
    3.8466   -1.6956   26.8119 C   0  0  0  0  0  0  0  0  0  0  0  0
    4.4404   -0.4620   26.8245 O   0  0  0  0  0  0  0  0  0  0  0  0
    5.7458   -0.7250   26.6077 C   0  0  0  0  0  0  0  0  0  0  0  0
    6.0480   -1.9886   26.4355 N   0  0  0  0  0  0  0  0  0  0  0  0
    4.8154   -2.6190   26.4684 C   0  0  0  0  0  0  0  0  0  0  0  0
    4.6705   -4.0585   26.2651 C   0  0  0  0  0  0  0  0  0  0  0  0
    3.6713   -4.5260   25.8947 O   0  0  0  0  0  0  0  0  0  0  0  0
    5.9912   -4.7267   26.6719 N   0  0  0  0  0  0  0  0  0  0  0  0
    6.3739   -6.0314   26.6226 C   0  0  0  0  0  0  0  0  0  0  0  0
    6.0263   -6.8495   25.6183 C   0  0  0  0  0  0  0  0  0  0  0  0
    6.5210   -8.1266   25.5132 N   0  0  0  0  0  0  0  0  0  0  0  0
    7.4017   -8.6916   26.4083 C   0  0  0  0  0  0  0  0  0  0  0  0
    7.8862   -9.8065   26.2539 O   0  0  0  0  0  0  0  0  0  0  0  0
    7.7170   -7.8735   27.6101 C   0  0  0  0  0  0  0  0  0  0  0  0
    8.4681   -8.4285   28.6516 C   0  0  0  0  0  0  0  0  0  0  0  0
    8.7046   -7.6895   29.8112 C   0  0  0  0  0  0  0  0  0  0  0  0
    8.1888   -6.4027   29.9346 C   0  0  0  0  0  0  0  0  0  0  0  0
    7.4517   -5.8442   28.8902 C   0  0  0  0  0  0  0  0  0  0  0  0
    7.2166   -6.5662   27.7072 C   0  0  0  0  0  0  0  0  0  0  0  0
    0.3224   -4.9706   30.3435 N   0  0  0  0  0  0  0  0  0  0  0  0
   -0.7656   -4.4232   31.4874 S   0  0  0  0  0  0  0  0  0  0  0  0
   -1.6506   -3.4351   30.9161 O   0  0  0  0  0  0  0  0  0  0  0  0
   -1.2789   -5.6494   32.0584 O   0  0  0  0  0  0  0  0  0  0  0  0
    0.0512   -3.6481   32.8081 C   0  0  0  0  0  0  0  0  0  0  0  0
    0.1141   -4.1882   34.0775 C   0  0  0  0  0  0  0  0  0  0  0  0
    0.9831   -3.1353   35.1151 S   0  0  0  0  0  0  0  0  0  0  0  0
    1.2384   -2.0727   33.7930 C   0  0  0  0  0  0  0  0  0  0  0  0
    0.7226   -2.4413   32.6425 N   0  0  0  0  0  0  0  0  0  0  0  0
    4.5222   -3.4686   30.1099 N   0  0  0  0  0  0  0  0  0  0  0  0
    6.5330   -2.0304   29.6430 H   0  0  0  0  0  0  0  0  0  0  0  0
    6.4650   -1.2719   31.2442 H   0  0  0  0  0  0  0  0  0  0  0  0
    7.4721   -2.7208   30.9773 H   0  0  0  0  0  0  0  0  0  0  0  0
    5.8606   -3.2270   33.1969 H   0  0  0  0  0  0  0  0  0  0  0  0
    2.9805   -5.1927   33.7381 H   0  0  0  0  0  0  0  0  0  0  0  0
    2.9678   -4.2531   28.4205 H   0  0  0  0  0  0  0  0  0  0  0  0
    2.4464   -5.6863   29.2610 H   0  0  0  0  0  0  0  0  0  0  0  0
    1.2656   -3.0680   30.2277 H   0  0  0  0  0  0  0  0  0  0  0  0
   -0.0796   -2.4814   28.5663 H   0  0  0  0  0  0  0  0  0  0  0  0
   -0.6421   -4.0908   28.3493 H   0  0  0  0  0  0  0  0  0  0  0  0
    0.1208   -3.8146   26.2892 H   0  0  0  0  0  0  0  0  0  0  0  0
    1.6152   -4.4031   26.9182 H   0  0  0  0  0  0  0  0  0  0  0  0
    1.8914   -2.5459   25.5280 H   0  0  0  0  0  0  0  0  0  0  0  0
    2.5243   -2.1931   28.3125 H   0  0  0  0  0  0  0  0  0  0  0  0
    0.8979   -0.5865   27.3069 H   0  0  0  0  0  0  0  0  0  0  0  0
    2.2431    0.1607   26.8160 H   0  0  0  0  0  0  0  0  0  0  0  0
    6.4128    0.1238   26.6275 H   0  0  0  0  0  0  0  0  0  0  0  0
    6.6336   -4.0213   27.0251 H   0  0  0  0  0  0  0  0  0  0  0  0
    5.4040   -6.5305   24.7878 H   0  0  0  0  0  0  0  0  0  0  0  0
    6.2802   -8.6705   24.6752 H   0  0  0  0  0  0  0  0  0  0  0  0
    8.8573   -9.4399   28.5577 H   0  0  0  0  0  0  0  0  0  0  0  0
    9.2934   -8.1175   30.6183 H   0  0  0  0  0  0  0  0  0  0  0  0
    8.3659   -5.8311   30.8420 H   0  0  0  0  0  0  0  0  0  0  0  0
    7.0485   -4.8448   29.0257 H   0  0  0  0  0  0  0  0  0  0  0  0
    0.8900   -5.6977   30.7815 H   0  0  0  0  0  0  0  0  0  0  0  0
   -0.3310   -5.1032   34.4460 H   0  0  0  0  0  0  0  0  0  0  0  0
    1.7959   -1.1516   33.9083 H   0  0  0  0  0  0  0  0  0  0  0  0
  1  2  1  0
  2  3  2  0
  3  4  1  0
  4  5  1  0
  4  6  2  0
  6  7  1  0
  7  8  1  0
  8  9  1  0
  9 10  1  0
 10 11  1  0
 11 12  1  0
 12 13  1  0
 13 14  1  0
 13 15  1  0
 15 16  1  0
 16 17  1  0
 17 18  2  0
 18 19  1  0
 19 20  1  0
 20 21  2  0
 20 22  1  0
 22 23  1  0
 23 24  2  0
 24 25  1  0
 25 26  1  0
 26 27  2  0
 26 28  1  0
 28 29  2  0
 29 30  1  0
 30 31  2  0
 31 32  1  0
 32 33  2  0
  9 34  1  0
 34 35  1  0
 35 36  2  0
 35 37  2  0
 35 38  1  0
 38 39  2  0
 39 40  1  0
 40 41  1  0
 41 42  2  0
  7 43  2  0
 43  2  1  0
 19 15  2  0
 33 23  1  0
 42 38  1  0
 33 28  1  0
  1 44  1  0
  1 45  1  0
  1 46  1  0
  3 47  1  0
  5 48  1  0
  8 49  1  0
  8 50  1  0
  9 51  1  0
 10 52  1  0
 10 53  1  0
 11 54  1  0
 11 55  1  0
 12 56  1  0
 13 57  1  0
 14 58  1  0
 14 59  1  0
 17 60  1  0
 22 61  1  0
 24 62  1  0
 25 63  1  0
 29 64  1  0
 30 65  1  0
 31 66  1  0
 32 67  1  0
 34 68  1  0
 39 69  1  0
 41 70  1  0
M  END
>  <Energy>  (831) 
-28.245614547949298

>  <compound_id>  (831) 
4388

>  <target_id>  (831) 
1

>  <reference_id>  (831) 
154

>  <inspiration_ids>  (831) 
[154, 134]

>  <energy_score>  (831) 
-166.47441036561116

>  <distance_score>  (831) 
1.42771123988077

>  <path>  (831) 
/opt/xchem-fragalysis-2/maxwin/BulkDock/SCRATCH/505735/C4388-P154/C4388-P154.minimised.mol

>  <scratch_subdir>  (831) 
/opt/xchem-fragalysis-2/maxwin/BulkDock/SCRATCH/505735/C4388-P154

>  <fragmenstein_runtime>  (831) 
15.862672090530396

>  <fragmenstein_outcome>  (831) 
too moved

>  <fragmenstein_mode>  (831) 
expansion

>  <fragmenstein_error>  (831) 


$$$$
C4388-P134
     RDKit          3D

 70 74  0  0  0  0  0  0  0  0999 V2000
    6.7587   -1.6047   29.4283 C   0  0  0  0  0  0  0  0  0  0  0  0
    5.8678   -2.3730   30.3580 C   0  0  0  0  0  0  0  0  0  0  0  0
    6.1812   -2.4702   31.6934 C   0  0  0  0  0  0  0  0  0  0  0  0
    5.3009   -3.2011   32.4408 C   0  0  0  0  0  0  0  0  0  0  0  0
    5.5152   -3.3728   33.7697 O   0  0  0  0  0  0  0  0  0  0  0  0
    4.1948   -3.7952   31.9844 N   0  0  0  0  0  0  0  0  0  0  0  0
    3.9549   -3.6337   30.6711 C   0  0  0  0  0  0  0  0  0  0  0  0
    2.7168   -4.2746   30.0909 C   0  0  0  0  0  0  0  0  0  0  0  0
    1.4447   -3.9149   30.8624 C   0  0  0  0  0  0  0  0  0  0  0  0
    0.8922   -2.5057   30.6229 C   0  0  0  0  0  0  0  0  0  0  0  0
    0.2407   -2.2660   29.2612 C   0  0  0  0  0  0  0  0  0  0  0  0
    1.1217   -2.4025   28.0919 N   0  0  0  0  0  0  0  0  0  0  0  0
    2.2670   -1.5291   28.1575 C   0  0  0  0  0  0  0  0  0  0  0  0
    1.7247   -0.1783   28.0733 N   0  0  0  0  0  0  0  0  0  0  0  0
    3.3238   -1.7502   27.1389 C   0  0  0  0  0  0  0  0  0  0  0  0
    3.7142   -0.5938   26.5016 O   0  0  0  0  0  0  0  0  0  0  0  0
    4.6458   -0.9887   25.6166 C   0  0  0  0  0  0  0  0  0  0  0  0
    5.0020   -2.2423   25.7134 N   0  0  0  0  0  0  0  0  0  0  0  0
    4.0816   -2.7810   26.6011 C   0  0  0  0  0  0  0  0  0  0  0  0
    3.9910   -4.2396   26.7153 C   0  0  0  0  0  0  0  0  0  0  0  0
    2.9723   -4.8106   26.6502 O   0  0  0  0  0  0  0  0  0  0  0  0
    5.4389   -4.7788   26.8190 N   0  0  0  0  0  0  0  0  0  0  0  0
    5.9141   -6.0559   26.7713 C   0  0  0  0  0  0  0  0  0  0  0  0
    5.6092   -6.8890   25.7650 C   0  0  0  0  0  0  0  0  0  0  0  0
    6.2731   -8.0776   25.5726 N   0  0  0  0  0  0  0  0  0  0  0  0
    7.3059   -8.5304   26.3634 C   0  0  0  0  0  0  0  0  0  0  0  0
    7.9302   -9.5585   26.1265 O   0  0  0  0  0  0  0  0  0  0  0  0
    7.6179   -7.6961   27.5524 C   0  0  0  0  0  0  0  0  0  0  0  0
    8.5631   -8.1407   28.4829 C   0  0  0  0  0  0  0  0  0  0  0  0
    8.8046   -7.3990   29.6391 C   0  0  0  0  0  0  0  0  0  0  0  0
    8.1139   -6.2106   29.8587 C   0  0  0  0  0  0  0  0  0  0  0  0
    7.1929   -5.7540   28.9145 C   0  0  0  0  0  0  0  0  0  0  0  0
    6.9368   -6.4841   27.7439 C   0  0  0  0  0  0  0  0  0  0  0  0
    0.4097   -4.9683   30.6131 N   0  0  0  0  0  0  0  0  0  0  0  0
   -0.8704   -5.0064   31.7088 S   0  0  0  0  0  0  0  0  0  0  0  0
   -1.7906   -3.9452   31.3567 O   0  0  0  0  0  0  0  0  0  0  0  0
   -1.2913   -6.3898   31.7693 O   0  0  0  0  0  0  0  0  0  0  0  0
   -0.3098   -4.6142   33.3100 C   0  0  0  0  0  0  0  0  0  0  0  0
   -0.1197   -5.5555   34.2994 C   0  0  0  0  0  0  0  0  0  0  0  0
    0.5240   -4.7998   35.6993 S   0  0  0  0  0  0  0  0  0  0  0  0
    0.5117   -3.2909   34.8785 C   0  0  0  0  0  0  0  0  0  0  0  0
    0.0793   -3.3120   33.6404 N   0  0  0  0  0  0  0  0  0  0  0  0
    4.7686   -2.9613   29.8317 N   0  0  0  0  0  0  0  0  0  0  0  0
    6.3927   -1.6612   28.3993 H   0  0  0  0  0  0  0  0  0  0  0  0
    6.7917   -0.5510   29.7217 H   0  0  0  0  0  0  0  0  0  0  0  0
    7.7725   -2.0170   29.4489 H   0  0  0  0  0  0  0  0  0  0  0  0
    7.0566   -2.0111   32.1299 H   0  0  0  0  0  0  0  0  0  0  0  0
    4.7401   -3.9094   34.0114 H   0  0  0  0  0  0  0  0  0  0  0  0
    2.6263   -4.0406   29.0371 H   0  0  0  0  0  0  0  0  0  0  0  0
    2.8495   -5.3564   30.0968 H   0  0  0  0  0  0  0  0  0  0  0  0
    1.7193   -3.9892   31.9178 H   0  0  0  0  0  0  0  0  0  0  0  0
    1.6709   -1.7636   30.8298 H   0  0  0  0  0  0  0  0  0  0  0  0
    0.1247   -2.2794   31.3695 H   0  0  0  0  0  0  0  0  0  0  0  0
   -0.2268   -1.2727   29.2722 H   0  0  0  0  0  0  0  0  0  0  0  0
   -0.5956   -2.9585   29.1179 H   0  0  0  0  0  0  0  0  0  0  0  0
    0.5523   -2.0385   27.3313 H   0  0  0  0  0  0  0  0  0  0  0  0
    2.7789   -1.5960   29.1149 H   0  0  0  0  0  0  0  0  0  0  0  0
    1.3405   -0.0680   27.1378 H   0  0  0  0  0  0  0  0  0  0  0  0
    2.5190    0.4615   28.0901 H   0  0  0  0  0  0  0  0  0  0  0  0
    4.9654   -0.2396   24.9154 H   0  0  0  0  0  0  0  0  0  0  0  0
    6.0828   -4.0011   26.9409 H   0  0  0  0  0  0  0  0  0  0  0  0
    4.9033   -6.6309   24.9827 H   0  0  0  0  0  0  0  0  0  0  0  0
    6.0742   -8.6104   24.7166 H   0  0  0  0  0  0  0  0  0  0  0  0
    9.0984   -9.0717   28.3084 H   0  0  0  0  0  0  0  0  0  0  0  0
    9.5334   -7.7488   30.3661 H   0  0  0  0  0  0  0  0  0  0  0  0
    8.2957   -5.6351   30.7629 H   0  0  0  0  0  0  0  0  0  0  0  0
    6.6602   -4.8315   29.1172 H   0  0  0  0  0  0  0  0  0  0  0  0
    0.0547   -4.9574   29.6512 H   0  0  0  0  0  0  0  0  0  0  0  0
   -0.3335   -6.6157   34.2718 H   0  0  0  0  0  0  0  0  0  0  0  0
    0.8442   -2.3816   35.3628 H   0  0  0  0  0  0  0  0  0  0  0  0
  1  2  1  0
  2  3  2  0
  3  4  1  0
  4  5  1  0
  4  6  2  0
  6  7  1  0
  7  8  1  0
  8  9  1  0
  9 10  1  0
 10 11  1  0
 11 12  1  0
 12 13  1  0
 13 14  1  0
 13 15  1  0
 15 16  1  0
 16 17  1  0
 17 18  2  0
 18 19  1  0
 19 20  1  0
 20 21  2  0
 20 22  1  0
 22 23  1  0
 23 24  2  0
 24 25  1  0
 25 26  1  0
 26 27  2  0
 26 28  1  0
 28 29  2  0
 29 30  1  0
 30 31  2  0
 31 32  1  0
 32 33  2  0
  9 34  1  0
 34 35  1  0
 35 36  2  0
 35 37  2  0
 35 38  1  0
 38 39  2  0
 39 40  1  0
 40 41  1  0
 41 42  2  0
  7 43  2  0
 43  2  1  0
 19 15  2  0
 33 23  1  0
 42 38  1  0
 33 28  1  0
  1 44  1  0
  1 45  1  0
  1 46  1  0
  3 47  1  0
  5 48  1  0
  8 49  1  0
  8 50  1  0
  9 51  1  0
 10 52  1  0
 10 53  1  0
 11 54  1  0
 11 55  1  0
 12 56  1  0
 13 57  1  0
 14 58  1  0
 14 59  1  0
 17 60  1  0
 22 61  1  0
 24 62  1  0
 25 63  1  0
 29 64  1  0
 30 65  1  0
 31 66  1  0
 32 67  1  0
 34 68  1  0
 39 69  1  0
 41 70  1  0
M  END
>  <Energy>  (832) 
-23.247606800065718

>  <compound_id>  (832) 
4388

>  <target_id>  (832) 
1

>  <reference_id>  (832) 
134

>  <inspiration_ids>  (832) 
[154, 134]

>  <energy_score>  (832) 
-161.47640261772895

>  <distance_score>  (832) 
1.3982031067812262

>  <path>  (832) 
/opt/xchem-fragalysis-2/maxwin/BulkDock/SCRATCH/505735/C4388-P134/C4388-P134.minimised.mol

>  <scratch_subdir>  (832) 
/opt/xchem-fragalysis-2/maxwin/BulkDock/SCRATCH/505735/C4388-P134

>  <fragmenstein_runtime>  (832) 
17.154520273208618

>  <fragmenstein_outcome>  (832) 
too moved

>  <fragmenstein_mode>  (832) 
expansion

>  <fragmenstein_error>  (832) 


$$$$
C4389-P154
     RDKit          3D

 69 73  0  0  0  0  0  0  0  0999 V2000
    1.0615    1.0214   33.1508 N   0  0  0  0  0  0  0  0  0  0  0  0
    0.5857    0.2356   32.1076 C   0  0  0  0  0  0  0  0  0  0  0  0
    1.2132   -0.9626   31.7884 C   0  0  0  0  0  0  0  0  0  0  0  0
    0.7355   -1.7115   30.7177 C   0  0  0  0  0  0  0  0  0  0  0  0
   -0.3436   -1.2185   29.9954 C   0  0  0  0  0  0  0  0  0  0  0  0
   -1.0089   -2.1135   28.6400 S   0  0  0  0  0  0  0  0  0  0  0  0
   -2.3507   -1.6280   28.4353 O   0  0  0  0  0  0  0  0  0  0  0  0
   -0.7360   -3.5139   28.8836 O   0  0  0  0  0  0  0  0  0  0  0  0
   -0.0598   -1.4998   27.4035 N   0  0  0  0  0  0  0  0  0  0  0  0
   -0.2188   -2.0978   25.7536 C   0  0  0  0  0  0  0  0  0  0  0  0
    0.6663   -3.5261   25.7063 C   0  0  0  0  0  0  0  0  0  0  0  0
    1.2709   -3.6323   27.0362 N   0  0  0  0  0  0  0  0  0  0  0  0
    2.5837   -4.1599   27.1486 C   0  0  0  0  0  0  0  0  0  0  0  0
    2.6491   -4.4108   28.5740 N   0  0  0  0  0  0  0  0  0  0  0  0
    3.6504   -3.2108   26.7334 C   0  0  0  0  0  0  0  0  0  0  0  0
    3.3533   -2.0463   26.0770 O   0  0  0  0  0  0  0  0  0  0  0  0
    4.5709   -1.5474   25.7273 C   0  0  0  0  0  0  0  0  0  0  0  0
    5.6033   -2.2744   26.1038 N   0  0  0  0  0  0  0  0  0  0  0  0
    5.0235   -3.3189   26.7836 C   0  0  0  0  0  0  0  0  0  0  0  0
    5.6907   -4.4839   27.3486 C   0  0  0  0  0  0  0  0  0  0  0  0
    5.4774   -4.7747   28.4909 O   0  0  0  0  0  0  0  0  0  0  0  0
    6.4509   -5.1498   26.3433 N   0  0  0  0  0  0  0  0  0  0  0  0
    7.0840   -6.3543   26.3529 C   0  0  0  0  0  0  0  0  0  0  0  0
    6.9272   -7.1443   25.2806 C   0  0  0  0  0  0  0  0  0  0  0  0
    7.3508   -8.4438   25.2600 N   0  0  0  0  0  0  0  0  0  0  0  0
    7.9852   -9.0663   26.3070 C   0  0  0  0  0  0  0  0  0  0  0  0
    8.3109  -10.2457   26.2601 O   0  0  0  0  0  0  0  0  0  0  0  0
    8.2708   -8.2146   27.4932 C   0  0  0  0  0  0  0  0  0  0  0  0
    9.0242   -8.7434   28.5482 C   0  0  0  0  0  0  0  0  0  0  0  0
    9.3448   -7.9490   29.6463 C   0  0  0  0  0  0  0  0  0  0  0  0
    8.9309   -6.6223   29.6797 C   0  0  0  0  0  0  0  0  0  0  0  0
    8.1949   -6.0899   28.6169 C   0  0  0  0  0  0  0  0  0  0  0  0
    7.8236   -6.8814   27.5183 C   0  0  0  0  0  0  0  0  0  0  0  0
   -1.7879   -1.3466   23.9689 C   0  0  0  0  0  0  0  0  0  0  0  0
   -0.8507    0.2431   23.4485 C   0  0  0  0  0  0  0  0  0  0  0  0
   -1.1737    1.8263   23.0956 N   0  0  0  0  0  0  0  0  0  0  0  0
   -0.1039    2.6686   22.0591 C   0  0  0  0  0  0  0  0  0  0  0  0
    1.3055    2.1091   21.2015 C   0  0  0  0  0  0  0  0  0  0  0  0
    1.3162    0.2183   21.1289 C   0  0  0  0  0  0  0  0  0  0  0  0
    1.5317   -0.5007   19.5474 O   0  0  0  0  0  0  0  0  0  0  0  0
    0.3990   -1.0910   22.4631 N   0  0  0  0  0  0  0  0  0  0  0  0
   -0.9099   -0.0170   30.3687 C   0  0  0  0  0  0  0  0  0  0  0  0
   -0.4673    0.7165   31.4212 N   0  0  0  0  0  0  0  0  0  0  0  0
    0.4531    1.8296   33.2367 H   0  0  0  0  0  0  0  0  0  0  0  0
    1.1456    0.5031   34.0164 H   0  0  0  0  0  0  0  0  0  0  0  0
    2.0768   -1.3009   32.3513 H   0  0  0  0  0  0  0  0  0  0  0  0
    1.2196   -2.6451   30.4427 H   0  0  0  0  0  0  0  0  0  0  0  0
    0.8959   -1.8631   27.5858 H   0  0  0  0  0  0  0  0  0  0  0  0
    0.8755   -1.6467   25.5907 H   0  0  0  0  0  0  0  0  0  0  0  0
    1.4215   -3.4522   24.9122 H   0  0  0  0  0  0  0  0  0  0  0  0
    0.0324   -4.3635   25.4523 H   0  0  0  0  0  0  0  0  0  0  0  0
    0.6316   -4.1543   27.6397 H   0  0  0  0  0  0  0  0  0  0  0  0
    2.7009   -5.1041   26.6053 H   0  0  0  0  0  0  0  0  0  0  0  0
    3.6015   -4.6945   28.8258 H   0  0  0  0  0  0  0  0  0  0  0  0
    2.0487   -5.1975   28.7891 H   0  0  0  0  0  0  0  0  0  0  0  0
    4.5688   -0.6246   25.1616 H   0  0  0  0  0  0  0  0  0  0  0  0
    6.3414   -4.6516   25.4600 H   0  0  0  0  0  0  0  0  0  0  0  0
    6.3657   -6.8352   24.4015 H   0  0  0  0  0  0  0  0  0  0  0  0
    7.0307   -9.0302   24.4850 H   0  0  0  0  0  0  0  0  0  0  0  0
    9.3755   -9.7699   28.5005 H   0  0  0  0  0  0  0  0  0  0  0  0
    9.9360   -8.3568   30.4618 H   0  0  0  0  0  0  0  0  0  0  0  0
    9.1978   -5.9882   30.5217 H   0  0  0  0  0  0  0  0  0  0  0  0
    7.9420   -5.0343   28.6582 H   0  0  0  0  0  0  0  0  0  0  0  0
   -2.8879   -1.9468   23.8187 H   0  0  0  0  0  0  0  0  0  0  0  0
   -1.6249   -1.8775   22.8729 H   0  0  0  0  0  0  0  0  0  0  0  0
   -0.3846    3.7213   21.9861 H   0  0  0  0  0  0  0  0  0  0  0  0
    1.7937    2.7178   20.4460 H   0  0  0  0  0  0  0  0  0  0  0  0
    0.8447   -1.2001   19.4972 H   0  0  0  0  0  0  0  0  0  0  0  0
   -1.7466    0.4168   29.8277 H   0  0  0  0  0  0  0  0  0  0  0  0
  1  2  1  0
  2  3  2  0
  3  4  1  0
  4  5  2  0
  5  6  1  0
  6  7  2  0
  6  8  2  0
  6  9  1  0
  9 10  1  0
 10 11  1  0
 11 12  1  0
 12 13  1  0
 13 14  1  0
 13 15  1  0
 15 16  1  0
 16 17  1  0
 17 18  2  0
 18 19  1  0
 19 20  1  0
 20 21  2  0
 20 22  1  0
 22 23  1  0
 23 24  2  0
 24 25  1  0
 25 26  1  0
 26 27  2  0
 26 28  1  0
 28 29  2  0
 29 30  1  0
 30 31  2  0
 31 32  1  0
 32 33  2  0
 10 34  1  0
 34 35  1  0
 35 36  2  0
 36 37  1  0
 37 38  2  0
 38 39  1  0
 39 40  1  0
 39 41  2  0
  5 42  1  0
 42 43  2  0
 43  2  1  0
 19 15  2  0
 33 23  1  0
 41 35  1  0
 33 28  1  0
  1 44  1  0
  1 45  1  0
  3 46  1  0
  4 47  1  0
  9 48  1  0
 10 49  1  0
 11 50  1  0
 11 51  1  0
 12 52  1  0
 13 53  1  0
 14 54  1  0
 14 55  1  0
 17 56  1  0
 22 57  1  0
 24 58  1  0
 25 59  1  0
 29 60  1  0
 30 61  1  0
 31 62  1  0
 32 63  1  0
 34 64  1  0
 34 65  1  0
 37 66  1  0
 38 67  1  0
 40 68  1  0
 42 69  1  0
M  END
>  <Energy>  (833) 
1044.4370313323693

>  <compound_id>  (833) 
4389

>  <target_id>  (833) 
1

>  <reference_id>  (833) 
154

>  <inspiration_ids>  (833) 
[154, 135]

>  <energy_score>  (833) 
1071.9689402400563

>  <distance_score>  (833) 
1.5195751210720936

>  <path>  (833) 
/opt/xchem-fragalysis-2/maxwin/BulkDock/SCRATCH/505735/C4389-P154/C4389-P154.minimised.mol

>  <scratch_subdir>  (833) 
/opt/xchem-fragalysis-2/maxwin/BulkDock/SCRATCH/505735/C4389-P154

>  <fragmenstein_runtime>  (833) 
32.09014415740967

>  <fragmenstein_outcome>  (833) 
too moved

>  <fragmenstein_mode>  (833) 
expansion

>  <fragmenstein_error>  (833) 


$$$$
C4389-P135
     RDKit          3D

 69 73  0  0  0  0  0  0  0  0999 V2000
    2.6731   -1.7561   30.0798 N   0  0  0  0  0  0  0  0  0  0  0  0
    1.4946   -1.7248   29.3484 C   0  0  0  0  0  0  0  0  0  0  0  0
    0.6340   -2.8141   29.3500 C   0  0  0  0  0  0  0  0  0  0  0  0
   -0.5078   -2.7762   28.5512 C   0  0  0  0  0  0  0  0  0  0  0  0
   -0.7296   -1.6669   27.7345 C   0  0  0  0  0  0  0  0  0  0  0  0
   -2.2570   -1.4311   26.8201 S   0  0  0  0  0  0  0  0  0  0  0  0
   -2.2623   -0.0459   26.3798 O   0  0  0  0  0  0  0  0  0  0  0  0
   -3.1468   -1.9009   27.8422 O   0  0  0  0  0  0  0  0  0  0  0  0
   -2.8154   -2.7049   25.1663 N   0  0  0  0  0  0  0  0  0  0  0  0
   -1.4083   -3.2797   23.7946 C   0  0  0  0  0  0  0  0  0  0  0  0
    0.5436   -3.7907   23.4761 C   0  0  0  0  0  0  0  0  0  0  0  0
    2.2905   -3.4617   23.9093 N   0  0  0  0  0  0  0  0  0  0  0  0
    3.1043   -3.8930   25.4319 C   0  0  0  0  0  0  0  0  0  0  0  0
    3.2502   -5.3038   25.7557 N   0  0  0  0  0  0  0  0  0  0  0  0
    4.3383   -3.1062   25.8333 C   0  0  0  0  0  0  0  0  0  0  0  0
    4.3478   -1.7592   25.5895 O   0  0  0  0  0  0  0  0  0  0  0  0
    5.3283   -1.2843   26.3924 C   0  0  0  0  0  0  0  0  0  0  0  0
    6.0218   -2.1833   27.0408 N   0  0  0  0  0  0  0  0  0  0  0  0
    5.3737   -3.3547   26.7250 C   0  0  0  0  0  0  0  0  0  0  0  0
    5.7300   -4.6261   27.3367 C   0  0  0  0  0  0  0  0  0  0  0  0
    5.3897   -4.8759   28.4573 O   0  0  0  0  0  0  0  0  0  0  0  0
    6.5088   -5.3827   26.4045 N   0  0  0  0  0  0  0  0  0  0  0  0
    7.0151   -6.6381   26.4799 C   0  0  0  0  0  0  0  0  0  0  0  0
    6.8231   -7.4538   25.4374 C   0  0  0  0  0  0  0  0  0  0  0  0
    7.3016   -8.7314   25.4101 N   0  0  0  0  0  0  0  0  0  0  0  0
    8.0853   -9.2828   26.3928 C   0  0  0  0  0  0  0  0  0  0  0  0
    8.5177  -10.4250   26.3080 O   0  0  0  0  0  0  0  0  0  0  0  0
    8.4038   -8.3957   27.5446 C   0  0  0  0  0  0  0  0  0  0  0  0
    9.3029   -8.8437   28.5192 C   0  0  0  0  0  0  0  0  0  0  0  0
    9.6331   -8.0206   29.5938 C   0  0  0  0  0  0  0  0  0  0  0  0
    9.0731   -6.7510   29.6880 C   0  0  0  0  0  0  0  0  0  0  0  0
    8.1979   -6.2933   28.6984 C   0  0  0  0  0  0  0  0  0  0  0  0
    7.8395   -7.1073   27.6125 C   0  0  0  0  0  0  0  0  0  0  0  0
   -1.9163   -2.1649   23.0087 C   0  0  0  0  0  0  0  0  0  0  0  0
   -0.7392   -1.3850   23.1524 C   0  0  0  0  0  0  0  0  0  0  0  0
   -1.2904    0.5283   23.2758 N   0  0  0  0  0  0  0  0  0  0  0  0
   -0.6044    2.0552   22.4988 C   0  0  0  0  0  0  0  0  0  0  0  0
    0.9320    2.0076   21.4888 C   0  0  0  0  0  0  0  0  0  0  0  0
    1.2457    0.0962   21.0885 C   0  0  0  0  0  0  0  0  0  0  0  0
    1.4875   -0.3995   19.4959 O   0  0  0  0  0  0  0  0  0  0  0  0
    0.2785   -1.4759   21.8784 N   0  0  0  0  0  0  0  0  0  0  0  0
    0.1396   -0.5947   27.8629 C   0  0  0  0  0  0  0  0  0  0  0  0
    1.2619   -0.6177   28.6281 N   0  0  0  0  0  0  0  0  0  0  0  0
    3.1395   -0.8613   29.9522 H   0  0  0  0  0  0  0  0  0  0  0  0
    2.5250   -1.9688   31.0576 H   0  0  0  0  0  0  0  0  0  0  0  0
    0.8550   -3.6839   29.9581 H   0  0  0  0  0  0  0  0  0  0  0  0
   -1.2098   -3.6003   28.5747 H   0  0  0  0  0  0  0  0  0  0  0  0
   -3.1177   -3.4455   25.8045 H   0  0  0  0  0  0  0  0  0  0  0  0
   -1.7405   -4.3827   24.0541 H   0  0  0  0  0  0  0  0  0  0  0  0
    0.8184   -3.6708   22.4137 H   0  0  0  0  0  0  0  0  0  0  0  0
    0.4543   -4.8813   23.6139 H   0  0  0  0  0  0  0  0  0  0  0  0
    2.6051   -2.5730   23.5029 H   0  0  0  0  0  0  0  0  0  0  0  0
    2.5088   -3.6023   26.3035 H   0  0  0  0  0  0  0  0  0  0  0  0
    3.9697   -5.7458   25.1853 H   0  0  0  0  0  0  0  0  0  0  0  0
    2.4031   -5.8274   25.6327 H   0  0  0  0  0  0  0  0  0  0  0  0
    5.4500   -0.2213   26.4357 H   0  0  0  0  0  0  0  0  0  0  0  0
    6.5276   -4.8919   25.5125 H   0  0  0  0  0  0  0  0  0  0  0  0
    6.2297   -7.1630   24.5742 H   0  0  0  0  0  0  0  0  0  0  0  0
    6.9867   -9.3362   24.6507 H   0  0  0  0  0  0  0  0  0  0  0  0
    9.7470   -9.8330   28.4345 H   0  0  0  0  0  0  0  0  0  0  0  0
   10.3304   -8.3666   30.3523 H   0  0  0  0  0  0  0  0  0  0  0  0
    9.3327   -6.1001   30.5194 H   0  0  0  0  0  0  0  0  0  0  0  0
    7.8303   -5.2753   28.7865 H   0  0  0  0  0  0  0  0  0  0  0  0
   -2.8928   -2.0796   23.3957 H   0  0  0  0  0  0  0  0  0  0  0  0
   -2.3447   -2.1412   22.0717 H   0  0  0  0  0  0  0  0  0  0  0  0
   -1.1418    2.9543   22.7841 H   0  0  0  0  0  0  0  0  0  0  0  0
    1.3218    2.8363   20.9077 H   0  0  0  0  0  0  0  0  0  0  0  0
    0.8591   -1.1539   19.4451 H   0  0  0  0  0  0  0  0  0  0  0  0
   -0.0325    0.3487   27.3513 H   0  0  0  0  0  0  0  0  0  0  0  0
  1  2  1  0
  2  3  2  0
  3  4  1  0
  4  5  2  0
  5  6  1  0
  6  7  2  0
  6  8  2  0
  6  9  1  0
  9 10  1  0
 10 11  1  0
 11 12  1  0
 12 13  1  0
 13 14  1  0
 13 15  1  0
 15 16  1  0
 16 17  1  0
 17 18  2  0
 18 19  1  0
 19 20  1  0
 20 21  2  0
 20 22  1  0
 22 23  1  0
 23 24  2  0
 24 25  1  0
 25 26  1  0
 26 27  2  0
 26 28  1  0
 28 29  2  0
 29 30  1  0
 30 31  2  0
 31 32  1  0
 32 33  2  0
 10 34  1  0
 34 35  1  0
 35 36  2  0
 36 37  1  0
 37 38  2  0
 38 39  1  0
 39 40  1  0
 39 41  2  0
  5 42  1  0
 42 43  2  0
 43  2  1  0
 19 15  2  0
 33 23  1  0
 41 35  1  0
 33 28  1  0
  1 44  1  0
  1 45  1  0
  3 46  1  0
  4 47  1  0
  9 48  1  0
 10 49  1  0
 11 50  1  0
 11 51  1  0
 12 52  1  0
 13 53  1  0
 14 54  1  0
 14 55  1  0
 17 56  1  0
 22 57  1  0
 24 58  1  0
 25 59  1  0
 29 60  1  0
 30 61  1  0
 31 62  1  0
 32 63  1  0
 34 64  1  0
 34 65  1  0
 37 66  1  0
 38 67  1  0
 40 68  1  0
 42 69  1  0
M  END
>  <Energy>  (834) 
879.06604157810489

>  <compound_id>  (834) 
4389

>  <target_id>  (834) 
1

>  <reference_id>  (834) 
135

>  <inspiration_ids>  (834) 
[154, 135]

>  <energy_score>  (834) 
906.5979504857858

>  <distance_score>  (834) 
1.5104329999343313

>  <path>  (834) 
/opt/xchem-fragalysis-2/maxwin/BulkDock/SCRATCH/505735/C4389-P135/C4389-P135.minimised.mol

>  <scratch_subdir>  (834) 
/opt/xchem-fragalysis-2/maxwin/BulkDock/SCRATCH/505735/C4389-P135

>  <fragmenstein_runtime>  (834) 
30.409927129745483

>  <fragmenstein_outcome>  (834) 
too moved

>  <fragmenstein_mode>  (834) 
expansion

>  <fragmenstein_error>  (834) 


$$$$
C4389-P154
     RDKit          3D

 69 73  0  0  0  0  0  0  0  0999 V2000
   -1.0786   -7.6136   34.9200 N   0  0  0  0  0  0  0  0  0  0  0  0
   -0.5905   -7.0445   33.7545 C   0  0  0  0  0  0  0  0  0  0  0  0
    0.1357   -5.8604   33.8150 C   0  0  0  0  0  0  0  0  0  0  0  0
    0.7225   -5.3713   32.6611 C   0  0  0  0  0  0  0  0  0  0  0  0
    0.5380   -6.0767   31.4849 C   0  0  0  0  0  0  0  0  0  0  0  0
    1.3297   -5.5539   30.0269 S   0  0  0  0  0  0  0  0  0  0  0  0
    1.4852   -6.7289   29.1961 O   0  0  0  0  0  0  0  0  0  0  0  0
    2.4537   -4.7402   30.4191 O   0  0  0  0  0  0  0  0  0  0  0  0
    0.1280   -4.6201   29.3466 N   0  0  0  0  0  0  0  0  0  0  0  0
   -0.0123   -3.1881   29.7138 C   0  0  0  0  0  0  0  0  0  0  0  0
   -0.1789   -2.3988   28.3937 C   0  0  0  0  0  0  0  0  0  0  0  0
    0.8703   -2.5819   27.3700 N   0  0  0  0  0  0  0  0  0  0  0  0
    2.1966   -2.3409   27.8844 C   0  0  0  0  0  0  0  0  0  0  0  0
    2.1704   -1.0264   28.5169 N   0  0  0  0  0  0  0  0  0  0  0  0
    3.2104   -2.3354   26.8152 C   0  0  0  0  0  0  0  0  0  0  0  0
    3.3017   -1.2010   26.0571 O   0  0  0  0  0  0  0  0  0  0  0  0
    4.3685   -1.4297   25.2615 C   0  0  0  0  0  0  0  0  0  0  0  0
    4.9570   -2.5906   25.4262 N   0  0  0  0  0  0  0  0  0  0  0  0
    4.2288   -3.1811   26.4398 C   0  0  0  0  0  0  0  0  0  0  0  0
    4.5943   -4.4605   27.0345 C   0  0  0  0  0  0  0  0  0  0  0  0
    4.1042   -4.8385   28.0217 O   0  0  0  0  0  0  0  0  0  0  0  0
    5.7145   -5.0754   26.1780 N   0  0  0  0  0  0  0  0  0  0  0  0
    6.3648   -6.2612   26.2957 C   0  0  0  0  0  0  0  0  0  0  0  0
    6.4885   -7.0421   25.2163 C   0  0  0  0  0  0  0  0  0  0  0  0
    7.0530   -8.2859   25.2771 N   0  0  0  0  0  0  0  0  0  0  0  0
    7.5887   -8.8408   26.4116 C   0  0  0  0  0  0  0  0  0  0  0  0
    8.0551   -9.9736   26.4279 O   0  0  0  0  0  0  0  0  0  0  0  0
    7.5735   -7.9775   27.6225 C   0  0  0  0  0  0  0  0  0  0  0  0
    8.2192   -8.4200   28.7819 C   0  0  0  0  0  0  0  0  0  0  0  0
    8.2557   -7.6073   29.9129 C   0  0  0  0  0  0  0  0  0  0  0  0
    7.6510   -6.3552   29.8830 C   0  0  0  0  0  0  0  0  0  0  0  0
    7.0113   -5.9125   28.7220 C   0  0  0  0  0  0  0  0  0  0  0  0
    6.9475   -6.7189   27.5744 C   0  0  0  0  0  0  0  0  0  0  0  0
   -1.2435   -2.9954   30.6120 C   0  0  0  0  0  0  0  0  0  0  0  0
   -1.0470   -1.9584   31.6858 C   0  0  0  0  0  0  0  0  0  0  0  0
   -0.0329   -2.1660   32.5503 N   0  0  0  0  0  0  0  0  0  0  0  0
    0.0452   -1.3430   33.6119 C   0  0  0  0  0  0  0  0  0  0  0  0
   -0.8583   -0.3445   33.8508 C   0  0  0  0  0  0  0  0  0  0  0  0
   -1.8424   -0.2277   32.9066 C   0  0  0  0  0  0  0  0  0  0  0  0
   -2.7900    0.7329   33.0752 O   0  0  0  0  0  0  0  0  0  0  0  0
   -1.9769   -0.9935   31.8155 N   0  0  0  0  0  0  0  0  0  0  0  0
   -0.2083   -7.2343   31.4920 C   0  0  0  0  0  0  0  0  0  0  0  0
   -0.7824   -7.7244   32.6110 N   0  0  0  0  0  0  0  0  0  0  0  0
   -1.5276   -8.5073   34.7081 H   0  0  0  0  0  0  0  0  0  0  0  0
   -1.6393   -6.9660   35.4597 H   0  0  0  0  0  0  0  0  0  0  0  0
    0.2687   -5.3463   34.7614 H   0  0  0  0  0  0  0  0  0  0  0  0
    1.3224   -4.4659   32.6970 H   0  0  0  0  0  0  0  0  0  0  0  0
   -0.1613   -4.9090   28.4065 H   0  0  0  0  0  0  0  0  0  0  0  0
    0.8860   -2.8465   30.2346 H   0  0  0  0  0  0  0  0  0  0  0  0
   -0.3211   -1.3329   28.6111 H   0  0  0  0  0  0  0  0  0  0  0  0
   -1.1139   -2.7193   27.9344 H   0  0  0  0  0  0  0  0  0  0  0  0
    0.8311   -3.5188   26.9777 H   0  0  0  0  0  0  0  0  0  0  0  0
    2.4764   -3.0753   28.6349 H   0  0  0  0  0  0  0  0  0  0  0  0
    1.9319   -0.3839   27.7610 H   0  0  0  0  0  0  0  0  0  0  0  0
    3.1248   -0.7921   28.7814 H   0  0  0  0  0  0  0  0  0  0  0  0
    4.6312   -0.6313   24.5914 H   0  0  0  0  0  0  0  0  0  0  0  0
    5.8402   -4.5190   25.3311 H   0  0  0  0  0  0  0  0  0  0  0  0
    6.0715   -6.7736   24.2495 H   0  0  0  0  0  0  0  0  0  0  0  0
    6.9223   -8.8935   24.4658 H   0  0  0  0  0  0  0  0  0  0  0  0
    8.7072   -9.3911   28.7861 H   0  0  0  0  0  0  0  0  0  0  0  0
    8.7645   -7.9419   30.8125 H   0  0  0  0  0  0  0  0  0  0  0  0
    7.6870   -5.7106   30.7578 H   0  0  0  0  0  0  0  0  0  0  0  0
    6.5905   -4.9116   28.7278 H   0  0  0  0  0  0  0  0  0  0  0  0
   -2.1235   -2.7356   30.0142 H   0  0  0  0  0  0  0  0  0  0  0  0
   -1.4916   -3.9270   31.1311 H   0  0  0  0  0  0  0  0  0  0  0  0
    0.8747   -1.5275   34.2877 H   0  0  0  0  0  0  0  0  0  0  0  0
   -0.8018    0.3041   34.7116 H   0  0  0  0  0  0  0  0  0  0  0  0
   -3.2071    0.8055   32.1921 H   0  0  0  0  0  0  0  0  0  0  0  0
   -0.3510   -7.8373   30.6004 H   0  0  0  0  0  0  0  0  0  0  0  0
  1  2  1  0
  2  3  2  0
  3  4  1  0
  4  5  2  0
  5  6  1  0
  6  7  2  0
  6  8  2  0
  6  9  1  0
  9 10  1  0
 10 11  1  0
 11 12  1  0
 12 13  1  0
 13 14  1  0
 13 15  1  0
 15 16  1  0
 16 17  1  0
 17 18  2  0
 18 19  1  0
 19 20  1  0
 20 21  2  0
 20 22  1  0
 22 23  1  0
 23 24  2  0
 24 25  1  0
 25 26  1  0
 26 27  2  0
 26 28  1  0
 28 29  2  0
 29 30  1  0
 30 31  2  0
 31 32  1  0
 32 33  2  0
 10 34  1  0
 34 35  1  0
 35 36  2  0
 36 37  1  0
 37 38  2  0
 38 39  1  0
 39 40  1  0
 39 41  2  0
  5 42  1  0
 42 43  2  0
 43  2  1  0
 19 15  2  0
 33 23  1  0
 41 35  1  0
 33 28  1  0
  1 44  1  0
  1 45  1  0
  3 46  1  0
  4 47  1  0
  9 48  1  0
 10 49  1  0
 11 50  1  0
 11 51  1  0
 12 52  1  0
 13 53  1  0
 14 54  1  0
 14 55  1  0
 17 56  1  0
 22 57  1  0
 24 58  1  0
 25 59  1  0
 29 60  1  0
 30 61  1  0
 31 62  1  0
 32 63  1  0
 34 64  1  0
 34 65  1  0
 37 66  1  0
 38 67  1  0
 40 68  1  0
 42 69  1  0
M  END
>  <Energy>  (835) 
-128.78320332644898

>  <compound_id>  (835) 
4389

>  <target_id>  (835) 
1

>  <reference_id>  (835) 
154

>  <inspiration_ids>  (835) 
[154, 136]

>  <energy_score>  (835) 
-93.40430012740956

>  <distance_score>  (835) 
1.0564785274588548

>  <path>  (835) 
/opt/xchem-fragalysis-2/maxwin/BulkDock/SCRATCH/505735/C4389-P154/C4389-P154.minimised.mol

>  <scratch_subdir>  (835) 
/opt/xchem-fragalysis-2/maxwin/BulkDock/SCRATCH/505735/C4389-P154

>  <fragmenstein_runtime>  (835) 
15.92135214805603

>  <fragmenstein_outcome>  (835) 
too moved

>  <fragmenstein_mode>  (835) 
expansion

>  <fragmenstein_error>  (835) 


$$$$
C4389-P136
     RDKit          3D

 69 73  0  0  0  0  0  0  0  0999 V2000
   -1.1472   -7.5582   34.6271 N   0  0  0  0  0  0  0  0  0  0  0  0
   -0.6023   -6.9996   33.4864 C   0  0  0  0  0  0  0  0  0  0  0  0
    0.1834   -5.8581   33.5975 C   0  0  0  0  0  0  0  0  0  0  0  0
    0.8941   -5.4150   32.4919 C   0  0  0  0  0  0  0  0  0  0  0  0
    0.7460   -6.0924   31.2897 C   0  0  0  0  0  0  0  0  0  0  0  0
    1.6882   -5.6102   29.8913 S   0  0  0  0  0  0  0  0  0  0  0  0
    1.7714   -6.7436   28.9962 O   0  0  0  0  0  0  0  0  0  0  0  0
    2.8915   -4.9666   30.3692 O   0  0  0  0  0  0  0  0  0  0  0  0
    0.6934   -4.4722   29.2186 N   0  0  0  0  0  0  0  0  0  0  0  0
    0.5356   -3.1610   29.8768 C   0  0  0  0  0  0  0  0  0  0  0  0
    1.6536   -2.2210   29.3937 C   0  0  0  0  0  0  0  0  0  0  0  0
    1.6138   -2.0858   27.9379 N   0  0  0  0  0  0  0  0  0  0  0  0
    2.4732   -1.0792   27.3791 C   0  0  0  0  0  0  0  0  0  0  0  0
    2.1952    0.1804   28.0533 N   0  0  0  0  0  0  0  0  0  0  0  0
    3.9083   -1.4157   27.2968 C   0  0  0  0  0  0  0  0  0  0  0  0
    4.7494   -0.3362   27.4069 O   0  0  0  0  0  0  0  0  0  0  0  0
    5.9892   -0.8437   27.2766 C   0  0  0  0  0  0  0  0  0  0  0  0
    6.0402   -2.1372   27.1009 N   0  0  0  0  0  0  0  0  0  0  0  0
    4.6987   -2.5230   27.0503 C   0  0  0  0  0  0  0  0  0  0  0  0
    4.3699   -3.9286   26.7729 C   0  0  0  0  0  0  0  0  0  0  0  0
    3.3005   -4.3287   26.5161 O   0  0  0  0  0  0  0  0  0  0  0  0
    5.7209   -4.6772   26.8897 N   0  0  0  0  0  0  0  0  0  0  0  0
    6.0060   -6.0092   26.8129 C   0  0  0  0  0  0  0  0  0  0  0  0
    5.6118   -6.8057   25.8098 C   0  0  0  0  0  0  0  0  0  0  0  0
    6.2238   -8.0170   25.5617 N   0  0  0  0  0  0  0  0  0  0  0  0
    7.3125   -8.4965   26.2620 C   0  0  0  0  0  0  0  0  0  0  0  0
    7.9155   -9.5197   25.9543 O   0  0  0  0  0  0  0  0  0  0  0  0
    7.7193   -7.6991   27.4457 C   0  0  0  0  0  0  0  0  0  0  0  0
    8.7543   -8.1446   28.2720 C   0  0  0  0  0  0  0  0  0  0  0  0
    9.0512   -7.4610   29.4527 C   0  0  0  0  0  0  0  0  0  0  0  0
    8.3259   -6.3260   29.8002 C   0  0  0  0  0  0  0  0  0  0  0  0
    7.3322   -5.8501   28.9459 C   0  0  0  0  0  0  0  0  0  0  0  0
    7.0363   -6.5155   27.7417 C   0  0  0  0  0  0  0  0  0  0  0  0
   -0.8752   -2.6080   29.6334 C   0  0  0  0  0  0  0  0  0  0  0  0
   -1.3609   -1.9061   30.8746 C   0  0  0  0  0  0  0  0  0  0  0  0
   -2.3644   -2.4864   31.5681 N   0  0  0  0  0  0  0  0  0  0  0  0
   -2.7535   -1.8543   32.6957 C   0  0  0  0  0  0  0  0  0  0  0  0
   -2.1604   -0.7143   33.1715 C   0  0  0  0  0  0  0  0  0  0  0  0
   -1.1351   -0.2473   32.4005 C   0  0  0  0  0  0  0  0  0  0  0  0
   -0.4413    0.8562   32.7805 O   0  0  0  0  0  0  0  0  0  0  0  0
   -0.7029   -0.7965   31.2609 N   0  0  0  0  0  0  0  0  0  0  0  0
   -0.0860   -7.1902   31.2402 C   0  0  0  0  0  0  0  0  0  0  0  0
   -0.7538   -7.6570   32.3231 N   0  0  0  0  0  0  0  0  0  0  0  0
   -1.5791   -8.4695   34.4549 H   0  0  0  0  0  0  0  0  0  0  0  0
   -1.6835   -6.9304   35.2047 H   0  0  0  0  0  0  0  0  0  0  0  0
    0.2992   -5.3667   34.5586 H   0  0  0  0  0  0  0  0  0  0  0  0
    1.5683   -4.5694   32.5938 H   0  0  0  0  0  0  0  0  0  0  0  0
    0.3004   -4.6378   28.2899 H   0  0  0  0  0  0  0  0  0  0  0  0
    0.6781   -3.2860   30.9529 H   0  0  0  0  0  0  0  0  0  0  0  0
    2.6357   -2.5965   29.6973 H   0  0  0  0  0  0  0  0  0  0  0  0
    1.5122   -1.2683   29.9110 H   0  0  0  0  0  0  0  0  0  0  0  0
    1.8451   -2.9856   27.5159 H   0  0  0  0  0  0  0  0  0  0  0  0
    2.2033   -0.8327   26.3676 H   0  0  0  0  0  0  0  0  0  0  0  0
    1.1875    0.2096   28.1849 H   0  0  0  0  0  0  0  0  0  0  0  0
    2.6375    0.1744   28.9633 H   0  0  0  0  0  0  0  0  0  0  0  0
    6.8112   -0.1451   27.3411 H   0  0  0  0  0  0  0  0  0  0  0  0
    6.4418   -4.0308   27.2119 H   0  0  0  0  0  0  0  0  0  0  0  0
    4.8984   -6.4936   25.0591 H   0  0  0  0  0  0  0  0  0  0  0  0
    5.9833   -8.5207   24.6984 H   0  0  0  0  0  0  0  0  0  0  0  0
    9.3112   -9.0405   28.0044 H   0  0  0  0  0  0  0  0  0  0  0  0
    9.8449   -7.8209   30.1028 H   0  0  0  0  0  0  0  0  0  0  0  0
    8.5457   -5.8004   30.7259 H   0  0  0  0  0  0  0  0  0  0  0  0
    6.7842   -4.9586   29.2422 H   0  0  0  0  0  0  0  0  0  0  0  0
   -0.9162   -1.9116   28.7890 H   0  0  0  0  0  0  0  0  0  0  0  0
   -1.5688   -3.4215   29.4048 H   0  0  0  0  0  0  0  0  0  0  0  0
   -3.5853   -2.3074   33.2257 H   0  0  0  0  0  0  0  0  0  0  0  0
   -2.4761   -0.2234   34.0788 H   0  0  0  0  0  0  0  0  0  0  0  0
    0.1588    0.9550   32.0205 H   0  0  0  0  0  0  0  0  0  0  0  0
   -0.2252   -7.7715   30.3339 H   0  0  0  0  0  0  0  0  0  0  0  0
  1  2  1  0
  2  3  2  0
  3  4  1  0
  4  5  2  0
  5  6  1  0
  6  7  2  0
  6  8  2  0
  6  9  1  0
  9 10  1  0
 10 11  1  0
 11 12  1  0
 12 13  1  0
 13 14  1  0
 13 15  1  0
 15 16  1  0
 16 17  1  0
 17 18  2  0
 18 19  1  0
 19 20  1  0
 20 21  2  0
 20 22  1  0
 22 23  1  0
 23 24  2  0
 24 25  1  0
 25 26  1  0
 26 27  2  0
 26 28  1  0
 28 29  2  0
 29 30  1  0
 30 31  2  0
 31 32  1  0
 32 33  2  0
 10 34  1  0
 34 35  1  0
 35 36  2  0
 36 37  1  0
 37 38  2  0
 38 39  1  0
 39 40  1  0
 39 41  2  0
  5 42  1  0
 42 43  2  0
 43  2  1  0
 19 15  2  0
 33 23  1  0
 41 35  1  0
 33 28  1  0
  1 44  1  0
  1 45  1  0
  3 46  1  0
  4 47  1  0
  9 48  1  0
 10 49  1  0
 11 50  1  0
 11 51  1  0
 12 52  1  0
 13 53  1  0
 14 54  1  0
 14 55  1  0
 17 56  1  0
 22 57  1  0
 24 58  1  0
 25 59  1  0
 29 60  1  0
 30 61  1  0
 31 62  1  0
 32 63  1  0
 34 64  1  0
 34 65  1  0
 37 66  1  0
 38 67  1  0
 40 68  1  0
 42 69  1  0
M  END
>  <Energy>  (836) 
-128.14180613126484

>  <compound_id>  (836) 
4389

>  <target_id>  (836) 
1

>  <reference_id>  (836) 
136

>  <inspiration_ids>  (836) 
[154, 136]

>  <energy_score>  (836) 
-92.76290293222706

>  <distance_score>  (836) 
1.4715367619792947

>  <path>  (836) 
/opt/xchem-fragalysis-2/maxwin/BulkDock/SCRATCH/505735/C4389-P136/C4389-P136.minimised.mol

>  <scratch_subdir>  (836) 
/opt/xchem-fragalysis-2/maxwin/BulkDock/SCRATCH/505735/C4389-P136

>  <fragmenstein_runtime>  (836) 
12.473399877548218

>  <fragmenstein_outcome>  (836) 
too moved

>  <fragmenstein_mode>  (836) 
expansion

>  <fragmenstein_error>  (836) 


$$$$
C282-P154
     RDKit          3D

 60 63  0  0  0  0  0  0  0  0999 V2000
    3.5356   -6.8571   26.8658 C   0  0  0  0  0  0  0  0  0  0  0  0
    3.6599   -5.3738   26.5786 C   0  0  0  0  0  0  0  0  0  0  0  0
    4.5583   -4.5309   27.5099 C   0  0  0  0  0  0  0  0  0  0  0  0
    5.9263   -5.1070   27.7297 N   0  0  0  0  0  0  0  0  0  0  0  0
    6.6263   -6.0827   27.0172 C   0  0  0  0  0  0  0  0  0  0  0  0
    6.4786   -6.4453   25.7302 C   0  0  0  0  0  0  0  0  0  0  0  0
    7.1471   -7.4920   25.1531 N   0  0  0  0  0  0  0  0  0  0  0  0
    8.1259   -8.2224   25.7731 C   0  0  0  0  0  0  0  0  0  0  0  0
    8.7825   -9.0702   25.1751 O   0  0  0  0  0  0  0  0  0  0  0  0
    8.3650   -7.8921   27.2006 C   0  0  0  0  0  0  0  0  0  0  0  0
    9.3112   -8.6271   27.9267 C   0  0  0  0  0  0  0  0  0  0  0  0
    9.5442   -8.3283   29.2678 C   0  0  0  0  0  0  0  0  0  0  0  0
    8.8237   -7.3103   29.8868 C   0  0  0  0  0  0  0  0  0  0  0  0
    7.8759   -6.5819   29.1624 C   0  0  0  0  0  0  0  0  0  0  0  0
    7.6337   -6.8531   27.8037 C   0  0  0  0  0  0  0  0  0  0  0  0
    3.8596   -4.4658   28.9288 C   0  0  0  0  0  0  0  0  0  0  0  0
    3.0479   -5.2963   29.3491 O   0  0  0  0  0  0  0  0  0  0  0  0
    4.2932   -3.3945   29.8792 C   0  0  0  0  0  0  0  0  0  0  0  0
    3.5810   -2.3108   30.2334 C   0  0  0  0  0  0  0  0  0  0  0  0
    2.2438   -1.8795   29.7961 C   0  0  0  0  0  0  0  0  0  0  0  0
    1.1265   -2.7232   29.7995 C   0  0  0  0  0  0  0  0  0  0  0  0
   -0.1311   -2.2533   29.3991 C   0  0  0  0  0  0  0  0  0  0  0  0
   -0.2929   -0.9215   29.0254 C   0  0  0  0  0  0  0  0  0  0  0  0
    0.8100   -0.0673   29.0438 C   0  0  0  0  0  0  0  0  0  0  0  0
    0.6343    1.3551   28.6466 C   0  0  0  0  0  0  0  0  0  0  0  0
    1.0277    2.2842   29.6752 N   0  0  0  0  0  0  0  0  0  0  0  0
    0.2025    1.5454   27.5474 O   0  0  0  0  0  0  0  0  0  0  0  0
    2.0743   -0.5410   29.4149 C   0  0  0  0  0  0  0  0  0  0  0  0
    4.6408   -3.0907   27.0194 C   0  0  0  0  0  0  0  0  0  0  0  0
    5.8251   -2.3745   27.1452 N   0  0  0  0  0  0  0  0  0  0  0  0
    5.5202   -1.1907   26.6661 C   0  0  0  0  0  0  0  0  0  0  0  0
    4.2255   -1.0312   26.2953 O   0  0  0  0  0  0  0  0  0  0  0  0
    3.6618   -2.2563   26.5201 C   0  0  0  0  0  0  0  0  0  0  0  0
    2.2305   -2.3982   26.1992 C   0  0  0  0  0  0  0  0  0  0  0  0
    2.0953   -2.8884   24.8401 N   0  0  0  0  0  0  0  0  0  0  0  0
    2.7211   -7.0382   27.5695 H   0  0  0  0  0  0  0  0  0  0  0  0
    4.4408   -7.2879   27.2833 H   0  0  0  0  0  0  0  0  0  0  0  0
    3.3095   -7.4091   25.9497 H   0  0  0  0  0  0  0  0  0  0  0  0
    2.6375   -4.9902   26.5936 H   0  0  0  0  0  0  0  0  0  0  0  0
    3.9912   -5.2369   25.5509 H   0  0  0  0  0  0  0  0  0  0  0  0
    6.5621   -4.3022   27.8130 H   0  0  0  0  0  0  0  0  0  0  0  0
    5.8076   -5.9437   25.0484 H   0  0  0  0  0  0  0  0  0  0  0  0
    6.8882   -7.7765   24.2071 H   0  0  0  0  0  0  0  0  0  0  0  0
    9.8629   -9.4314   27.4448 H   0  0  0  0  0  0  0  0  0  0  0  0
   10.2848   -8.8944   29.8265 H   0  0  0  0  0  0  0  0  0  0  0  0
    8.9974   -7.0807   30.9347 H   0  0  0  0  0  0  0  0  0  0  0  0
    7.3248   -5.7983   29.6744 H   0  0  0  0  0  0  0  0  0  0  0  0
    5.3032   -3.5325   30.2530 H   0  0  0  0  0  0  0  0  0  0  0  0
    4.0703   -1.6082   30.9078 H   0  0  0  0  0  0  0  0  0  0  0  0
    1.2176   -3.7638   30.1069 H   0  0  0  0  0  0  0  0  0  0  0  0
   -0.9806   -2.9339   29.3743 H   0  0  0  0  0  0  0  0  0  0  0  0
   -1.2682   -0.5549   28.7162 H   0  0  0  0  0  0  0  0  0  0  0  0
    1.2439    1.7579   30.5411 H   0  0  0  0  0  0  0  0  0  0  0  0
    1.4648    1.7604   30.4543 H   0  0  0  0  0  0  0  0  0  0  0  0
    2.9358    0.1232   29.3656 H   0  0  0  0  0  0  0  0  0  0  0  0
    6.1629   -0.3311   26.5517 H   0  0  0  0  0  0  0  0  0  0  0  0
    1.7343   -3.0851   26.8881 H   0  0  0  0  0  0  0  0  0  0  0  0
    1.7356   -1.4356   26.3270 H   0  0  0  0  0  0  0  0  0  0  0  0
    2.6063   -2.2585   24.2160 H   0  0  0  0  0  0  0  0  0  0  0  0
    1.1133   -2.7717   24.5579 H   0  0  0  0  0  0  0  0  0  0  0  0
  1  2  1  0
  2  3  1  0
  3  4  1  0
  4  5  1  0
  5  6  2  0
  6  7  1  0
  7  8  1  0
  8  9  2  0
  8 10  1  0
 10 11  2  0
 11 12  1  0
 12 13  2  0
 13 14  1  0
 14 15  2  0
  3 16  1  0
 16 17  2  0
 16 18  1  0
 18 19  2  3
 19 20  1  0
 20 21  2  0
 21 22  1  0
 22 23  2  0
 23 24  1  0
 24 25  1  0
 25 26  1  0
 25 27  2  0
 24 28  2  0
  3 29  1  0
 29 30  1  0
 30 31  2  0
 31 32  1  0
 32 33  1  0
 33 34  1  0
 34 35  1  0
 15  5  1  0
 28 20  1  0
 33 29  2  0
 15 10  1  0
  1 36  1  0
  1 37  1  0
  1 38  1  0
  2 39  1  0
  2 40  1  0
  4 41  1  0
  6 42  1  0
  7 43  1  0
 11 44  1  0
 12 45  1  0
 13 46  1  0
 14 47  1  0
 18 48  1  0
 19 49  1  0
 21 50  1  0
 22 51  1  0
 23 52  1  0
 26 53  1  0
 26 54  1  0
 28 55  1  0
 31 56  1  0
 34 57  1  0
 34 58  1  0
 35 59  1  0
 35 60  1  0
M  END
>  <Energy>  (837) 
313.88344768947911

>  <compound_id>  (837) 
282

>  <target_id>  (837) 
1

>  <reference_id>  (837) 
154

>  <inspiration_ids>  (837) 
[154, 141]

>  <energy_score>  (837) 
133.8956090221235

>  <distance_score>  (837) 
2.0533013420021207

>  <path>  (837) 
/opt/xchem-fragalysis-2/maxwin/BulkDock/SCRATCH/505735/C282-P154/C282-P154.minimised.mol

>  <scratch_subdir>  (837) 
/opt/xchem-fragalysis-2/maxwin/BulkDock/SCRATCH/505735/C282-P154

>  <fragmenstein_runtime>  (837) 
9.19651174545288

>  <fragmenstein_outcome>  (837) 
too moved

>  <fragmenstein_mode>  (837) 
expansion

>  <fragmenstein_error>  (837) 


$$$$
C282-P141
     RDKit          3D

 60 63  0  0  0  0  0  0  0  0999 V2000
    3.0243   -5.6043   27.1280 C   0  0  0  0  0  0  0  0  0  0  0  0
    3.7965   -4.2964   27.0449 C   0  0  0  0  0  0  0  0  0  0  0  0
    4.8068   -4.0500   28.1719 C   0  0  0  0  0  0  0  0  0  0  0  0
    5.7107   -5.2230   28.4261 N   0  0  0  0  0  0  0  0  0  0  0  0
    6.3628   -6.1222   27.5653 C   0  0  0  0  0  0  0  0  0  0  0  0
    6.1119   -6.3953   26.2698 C   0  0  0  0  0  0  0  0  0  0  0  0
    6.8141   -7.3062   25.5208 N   0  0  0  0  0  0  0  0  0  0  0  0
    7.9207   -7.9820   25.9602 C   0  0  0  0  0  0  0  0  0  0  0  0
    8.6069   -8.6780   25.2156 O   0  0  0  0  0  0  0  0  0  0  0  0
    8.2455   -7.8039   27.3948 C   0  0  0  0  0  0  0  0  0  0  0  0
    9.3051   -8.5417   27.9434 C   0  0  0  0  0  0  0  0  0  0  0  0
    9.6144   -8.4186   29.2945 C   0  0  0  0  0  0  0  0  0  0  0  0
    8.8508   -7.5821   30.1007 C   0  0  0  0  0  0  0  0  0  0  0  0
    7.7873   -6.8564   29.5539 C   0  0  0  0  0  0  0  0  0  0  0  0
    7.4738   -6.9287   28.1823 C   0  0  0  0  0  0  0  0  0  0  0  0
    3.9334   -3.8557   29.4936 C   0  0  0  0  0  0  0  0  0  0  0  0
    3.1553   -4.7103   29.9338 O   0  0  0  0  0  0  0  0  0  0  0  0
    4.1016   -2.6262   30.3247 C   0  0  0  0  0  0  0  0  0  0  0  0
    3.2803   -1.5642   30.3875 C   0  0  0  0  0  0  0  0  0  0  0  0
    2.0291   -1.2691   29.6692 C   0  0  0  0  0  0  0  0  0  0  0  0
    1.0072   -2.2037   29.4718 C   0  0  0  0  0  0  0  0  0  0  0  0
   -0.1691   -1.8467   28.7975 C   0  0  0  0  0  0  0  0  0  0  0  0
   -0.3471   -0.5456   28.3266 C   0  0  0  0  0  0  0  0  0  0  0  0
    0.6486    0.4029   28.5523 C   0  0  0  0  0  0  0  0  0  0  0  0
    0.4726    1.7951   28.0495 C   0  0  0  0  0  0  0  0  0  0  0  0
    0.5990    2.7922   29.0804 N   0  0  0  0  0  0  0  0  0  0  0  0
    0.2955    1.9091   26.8724 O   0  0  0  0  0  0  0  0  0  0  0  0
    1.8318    0.0450   29.2143 C   0  0  0  0  0  0  0  0  0  0  0  0
    5.6278   -2.7793   27.9699 C   0  0  0  0  0  0  0  0  0  0  0  0
    6.9000   -2.7142   28.5329 N   0  0  0  0  0  0  0  0  0  0  0  0
    7.3477   -1.5376   28.1667 C   0  0  0  0  0  0  0  0  0  0  0  0
    6.4558   -0.7670   27.4989 O   0  0  0  0  0  0  0  0  0  0  0  0
    5.3473   -1.5619   27.3760 C   0  0  0  0  0  0  0  0  0  0  0  0
    4.2206   -0.9657   26.6346 C   0  0  0  0  0  0  0  0  0  0  0  0
    4.3699   -1.3281   25.2431 N   0  0  0  0  0  0  0  0  0  0  0  0
    2.5945   -5.8178   26.1508 H   0  0  0  0  0  0  0  0  0  0  0  0
    2.2089   -5.5186   27.8479 H   0  0  0  0  0  0  0  0  0  0  0  0
    3.6234   -6.4685   27.4161 H   0  0  0  0  0  0  0  0  0  0  0  0
    3.0447   -3.5018   27.0538 H   0  0  0  0  0  0  0  0  0  0  0  0
    4.2863   -4.2127   26.0708 H   0  0  0  0  0  0  0  0  0  0  0  0
    6.4302   -4.8411   29.0460 H   0  0  0  0  0  0  0  0  0  0  0  0
    5.3323   -5.9195   25.6978 H   0  0  0  0  0  0  0  0  0  0  0  0
    6.5220   -7.4935   24.5604 H   0  0  0  0  0  0  0  0  0  0  0  0
    9.8826   -9.2166   27.3153 H   0  0  0  0  0  0  0  0  0  0  0  0
   10.4377   -8.9888   29.7167 H   0  0  0  0  0  0  0  0  0  0  0  0
    9.0725   -7.4997   31.1618 H   0  0  0  0  0  0  0  0  0  0  0  0
    7.2025   -6.2470   30.2358 H   0  0  0  0  0  0  0  0  0  0  0  0
    5.0109   -2.6394   30.9203 H   0  0  0  0  0  0  0  0  0  0  0  0
    3.5969   -0.7586   31.0516 H   0  0  0  0  0  0  0  0  0  0  0  0
    1.1047   -3.2243   29.8368 H   0  0  0  0  0  0  0  0  0  0  0  0
   -0.9450   -2.5911   28.6196 H   0  0  0  0  0  0  0  0  0  0  0  0
   -1.2468   -0.2862   27.7708 H   0  0  0  0  0  0  0  0  0  0  0  0
    0.8619    2.3291   29.9671 H   0  0  0  0  0  0  0  0  0  0  0  0
    0.6275    2.3226   30.0023 H   0  0  0  0  0  0  0  0  0  0  0  0
    2.6234    0.7838   29.3300 H   0  0  0  0  0  0  0  0  0  0  0  0
    8.3227   -1.1076   28.3475 H   0  0  0  0  0  0  0  0  0  0  0  0
    3.2672   -1.3143   27.0287 H   0  0  0  0  0  0  0  0  0  0  0  0
    4.2284    0.1239   26.7438 H   0  0  0  0  0  0  0  0  0  0  0  0
    3.7717   -0.7269   24.6531 H   0  0  0  0  0  0  0  0  0  0  0  0
    5.2878   -0.9840   24.9531 H   0  0  0  0  0  0  0  0  0  0  0  0
  1  2  1  0
  2  3  1  0
  3  4  1  0
  4  5  1  0
  5  6  2  0
  6  7  1  0
  7  8  1  0
  8  9  2  0
  8 10  1  0
 10 11  2  0
 11 12  1  0
 12 13  2  0
 13 14  1  0
 14 15  2  0
  3 16  1  0
 16 17  2  0
 16 18  1  0
 18 19  2  3
 19 20  1  0
 20 21  2  0
 21 22  1  0
 22 23  2  0
 23 24  1  0
 24 25  1  0
 25 26  1  0
 25 27  2  0
 24 28  2  0
  3 29  1  0
 29 30  1  0
 30 31  2  0
 31 32  1  0
 32 33  1  0
 33 34  1  0
 34 35  1  0
 15  5  1  0
 28 20  1  0
 33 29  2  0
 15 10  1  0
  1 36  1  0
  1 37  1  0
  1 38  1  0
  2 39  1  0
  2 40  1  0
  4 41  1  0
  6 42  1  0
  7 43  1  0
 11 44  1  0
 12 45  1  0
 13 46  1  0
 14 47  1  0
 18 48  1  0
 19 49  1  0
 21 50  1  0
 22 51  1  0
 23 52  1  0
 26 53  1  0
 26 54  1  0
 28 55  1  0
 31 56  1  0
 34 57  1  0
 34 58  1  0
 35 59  1  0
 35 60  1  0
M  END
>  <Energy>  (838) 
316.01496134488912

>  <compound_id>  (838) 
282

>  <target_id>  (838) 
1

>  <reference_id>  (838) 
141

>  <inspiration_ids>  (838) 
[154, 141]

>  <energy_score>  (838) 
136.02712267753463

>  <distance_score>  (838) 
2.441512872328685

>  <path>  (838) 
/opt/xchem-fragalysis-2/maxwin/BulkDock/SCRATCH/505735/C282-P141/C282-P141.minimised.mol

>  <scratch_subdir>  (838) 
/opt/xchem-fragalysis-2/maxwin/BulkDock/SCRATCH/505735/C282-P141

>  <fragmenstein_runtime>  (838) 
9.3407564163208

>  <fragmenstein_outcome>  (838) 
too moved

>  <fragmenstein_mode>  (838) 
expansion

>  <fragmenstein_error>  (838) 


$$$$
C282-P154
     RDKit          3D

 60 63  0  0  0  0  0  0  0  0999 V2000
    3.4850   -6.8614   26.8574 C   0  0  0  0  0  0  0  0  0  0  0  0
    3.6062   -5.3705   26.6050 C   0  0  0  0  0  0  0  0  0  0  0  0
    4.4986   -4.5585   27.5696 C   0  0  0  0  0  0  0  0  0  0  0  0
    5.8161   -5.2171   27.7994 N   0  0  0  0  0  0  0  0  0  0  0  0
    6.5873   -6.1014   27.0533 C   0  0  0  0  0  0  0  0  0  0  0  0
    6.4580   -6.4294   25.7554 C   0  0  0  0  0  0  0  0  0  0  0  0
    7.1690   -7.4286   25.1465 N   0  0  0  0  0  0  0  0  0  0  0  0
    8.1701   -8.1444   25.7465 C   0  0  0  0  0  0  0  0  0  0  0  0
    8.8492   -8.9577   25.1251 O   0  0  0  0  0  0  0  0  0  0  0  0
    8.3962   -7.8491   27.1836 C   0  0  0  0  0  0  0  0  0  0  0  0
    9.3636   -8.5787   27.8880 C   0  0  0  0  0  0  0  0  0  0  0  0
    9.5774   -8.3263   29.2413 C   0  0  0  0  0  0  0  0  0  0  0  0
    8.8162   -7.3609   29.8939 C   0  0  0  0  0  0  0  0  0  0  0  0
    7.8466   -6.6385   29.1919 C   0  0  0  0  0  0  0  0  0  0  0  0
    7.6247   -6.8589   27.8194 C   0  0  0  0  0  0  0  0  0  0  0  0
    3.8456   -4.4251   29.0161 C   0  0  0  0  0  0  0  0  0  0  0  0
    4.5017   -4.1866   30.0370 O   0  0  0  0  0  0  0  0  0  0  0  0
    2.3777   -4.6221   29.1933 C   0  0  0  0  0  0  0  0  0  0  0  0
    1.4130   -3.7146   29.4184 C   0  0  0  0  0  0  0  0  0  0  0  0
    1.4229   -2.2476   29.5402 C   0  0  0  0  0  0  0  0  0  0  0  0
    2.5583   -1.4890   29.8412 C   0  0  0  0  0  0  0  0  0  0  0  0
    2.4836   -0.0989   29.9979 C   0  0  0  0  0  0  0  0  0  0  0  0
    1.2644    0.5571   29.8780 C   0  0  0  0  0  0  0  0  0  0  0  0
    0.1249   -0.1900   29.5809 C   0  0  0  0  0  0  0  0  0  0  0  0
   -1.2020    0.4653   29.4925 C   0  0  0  0  0  0  0  0  0  0  0  0
   -1.2442    1.5449   28.5417 N   0  0  0  0  0  0  0  0  0  0  0  0
   -2.0532    0.0215   30.2087 O   0  0  0  0  0  0  0  0  0  0  0  0
    0.1972   -1.5768   29.4111 C   0  0  0  0  0  0  0  0  0  0  0  0
    4.6431   -3.1163   27.1051 C   0  0  0  0  0  0  0  0  0  0  0  0
    5.8332   -2.4283   27.2921 N   0  0  0  0  0  0  0  0  0  0  0  0
    5.5904   -1.2396   26.7955 C   0  0  0  0  0  0  0  0  0  0  0  0
    4.3242   -1.0475   26.3477 O   0  0  0  0  0  0  0  0  0  0  0  0
    3.7164   -2.2585   26.5432 C   0  0  0  0  0  0  0  0  0  0  0  0
    2.3029   -2.3561   26.1363 C   0  0  0  0  0  0  0  0  0  0  0  0
    2.2142   -2.7957   24.7599 N   0  0  0  0  0  0  0  0  0  0  0  0
    2.6892   -7.0666   27.5727 H   0  0  0  0  0  0  0  0  0  0  0  0
    4.3974   -7.3092   27.2384 H   0  0  0  0  0  0  0  0  0  0  0  0
    3.2462   -7.3889   25.9310 H   0  0  0  0  0  0  0  0  0  0  0  0
    2.5874   -4.9814   26.5816 H   0  0  0  0  0  0  0  0  0  0  0  0
    3.9670   -5.2174   25.5886 H   0  0  0  0  0  0  0  0  0  0  0  0
    6.4209   -4.5383   28.2725 H   0  0  0  0  0  0  0  0  0  0  0  0
    5.7617   -5.9430   25.0892 H   0  0  0  0  0  0  0  0  0  0  0  0
    6.9219   -7.6908   24.1921 H   0  0  0  0  0  0  0  0  0  0  0  0
    9.9452   -9.3448   27.3798 H   0  0  0  0  0  0  0  0  0  0  0  0
   10.3331   -8.8882   29.7838 H   0  0  0  0  0  0  0  0  0  0  0  0
    8.9717   -7.1672   30.9521 H   0  0  0  0  0  0  0  0  0  0  0  0
    7.2620   -5.9043   29.7408 H   0  0  0  0  0  0  0  0  0  0  0  0
    2.0916   -5.6677   29.1663 H   0  0  0  0  0  0  0  0  0  0  0  0
    0.4107   -4.1377   29.5223 H   0  0  0  0  0  0  0  0  0  0  0  0
    3.5280   -1.9563   29.9930 H   0  0  0  0  0  0  0  0  0  0  0  0
    3.3845    0.4575   30.2500 H   0  0  0  0  0  0  0  0  0  0  0  0
    1.2091    1.6263   30.0657 H   0  0  0  0  0  0  0  0  0  0  0  0
   -0.3489    1.5696   28.0183 H   0  0  0  0  0  0  0  0  0  0  0  0
   -0.2856    1.7223   28.1890 H   0  0  0  0  0  0  0  0  0  0  0  0
   -0.7186   -2.1275   29.1976 H   0  0  0  0  0  0  0  0  0  0  0  0
    6.2657   -0.4011   26.7162 H   0  0  0  0  0  0  0  0  0  0  0  0
    1.7478   -3.0548   26.7596 H   0  0  0  0  0  0  0  0  0  0  0  0
    1.8245   -1.3880   26.2864 H   0  0  0  0  0  0  0  0  0  0  0  0
    1.2429   -2.6883   24.4372 H   0  0  0  0  0  0  0  0  0  0  0  0
    2.7549   -2.1585   24.1693 H   0  0  0  0  0  0  0  0  0  0  0  0
  1  2  1  0
  2  3  1  0
  3  4  1  0
  4  5  1  0
  5  6  2  0
  6  7  1  0
  7  8  1  0
  8  9  2  0
  8 10  1  0
 10 11  2  0
 11 12  1  0
 12 13  2  0
 13 14  1  0
 14 15  2  0
  3 16  1  0
 16 17  2  0
 16 18  1  0
 18 19  2  3
 19 20  1  0
 20 21  2  0
 21 22  1  0
 22 23  2  0
 23 24  1  0
 24 25  1  0
 25 26  1  0
 25 27  2  0
 24 28  2  0
  3 29  1  0
 29 30  1  0
 30 31  2  0
 31 32  1  0
 32 33  1  0
 33 34  1  0
 34 35  1  0
 15  5  1  0
 28 20  1  0
 33 29  2  0
 15 10  1  0
  1 36  1  0
  1 37  1  0
  1 38  1  0
  2 39  1  0
  2 40  1  0
  4 41  1  0
  6 42  1  0
  7 43  1  0
 11 44  1  0
 12 45  1  0
 13 46  1  0
 14 47  1  0
 18 48  1  0
 19 49  1  0
 21 50  1  0
 22 51  1  0
 23 52  1  0
 26 53  1  0
 26 54  1  0
 28 55  1  0
 31 56  1  0
 34 57  1  0
 34 58  1  0
 35 59  1  0
 35 60  1  0
M  END
>  <Energy>  (839) 
319.18045361175609

>  <compound_id>  (839) 
282

>  <target_id>  (839) 
1

>  <reference_id>  (839) 
154

>  <inspiration_ids>  (839) 
[154, 142]

>  <energy_score>  (839) 
139.19261494439934

>  <distance_score>  (839) 
2.1184897829678246

>  <path>  (839) 
/opt/xchem-fragalysis-2/maxwin/BulkDock/SCRATCH/505735/C282-P154/C282-P154.minimised.mol

>  <scratch_subdir>  (839) 
/opt/xchem-fragalysis-2/maxwin/BulkDock/SCRATCH/505735/C282-P154

>  <fragmenstein_runtime>  (839) 
12.341175317764282

>  <fragmenstein_outcome>  (839) 
too moved

>  <fragmenstein_mode>  (839) 
expansion

>  <fragmenstein_error>  (839) 


$$$$
C282-P142
     RDKit          3D

 60 63  0  0  0  0  0  0  0  0999 V2000
    5.9642   -6.7171   28.8510 C   0  0  0  0  0  0  0  0  0  0  0  0
    5.2004   -5.5695   28.2208 C   0  0  0  0  0  0  0  0  0  0  0  0
    5.9231   -4.1918   28.1608 C   0  0  0  0  0  0  0  0  0  0  0  0
    7.3739   -4.3440   27.7712 N   0  0  0  0  0  0  0  0  0  0  0  0
    7.8123   -5.4436   27.0090 C   0  0  0  0  0  0  0  0  0  0  0  0
    7.2164   -5.9091   25.8923 C   0  0  0  0  0  0  0  0  0  0  0  0
    7.5679   -7.0848   25.2819 N   0  0  0  0  0  0  0  0  0  0  0  0
    8.6022   -7.8833   25.7017 C   0  0  0  0  0  0  0  0  0  0  0  0
    8.9854   -8.8434   25.0400 O   0  0  0  0  0  0  0  0  0  0  0  0
    9.2595   -7.4870   26.9720 C   0  0  0  0  0  0  0  0  0  0  0  0
   10.2015   -8.3418   27.5567 C   0  0  0  0  0  0  0  0  0  0  0  0
   10.7874   -7.9968   28.7735 C   0  0  0  0  0  0  0  0  0  0  0  0
   10.4459   -6.7972   29.3952 C   0  0  0  0  0  0  0  0  0  0  0  0
    9.5128   -5.9413   28.8058 C   0  0  0  0  0  0  0  0  0  0  0  0
    8.8966   -6.2774   27.5904 C   0  0  0  0  0  0  0  0  0  0  0  0
    5.7719   -3.5257   29.6009 C   0  0  0  0  0  0  0  0  0  0  0  0
    5.4509   -4.1496   30.6168 O   0  0  0  0  0  0  0  0  0  0  0  0
    6.0180   -2.0555   29.7625 C   0  0  0  0  0  0  0  0  0  0  0  0
    5.1170   -1.0559   29.8680 C   0  0  0  0  0  0  0  0  0  0  0  0
    3.6382   -1.0029   29.8160 C   0  0  0  0  0  0  0  0  0  0  0  0
    3.0541    0.0293   29.0575 C   0  0  0  0  0  0  0  0  0  0  0  0
    1.6673    0.1976   28.9841 C   0  0  0  0  0  0  0  0  0  0  0  0
    0.8279   -0.6719   29.6697 C   0  0  0  0  0  0  0  0  0  0  0  0
    1.3863   -1.7159   30.4191 C   0  0  0  0  0  0  0  0  0  0  0  0
    0.5054   -2.6886   31.1383 C   0  0  0  0  0  0  0  0  0  0  0  0
   -0.5605   -3.2383   30.3270 N   0  0  0  0  0  0  0  0  0  0  0  0
    0.7950   -2.8860   32.2835 O   0  0  0  0  0  0  0  0  0  0  0  0
    2.7865   -1.8573   30.5218 C   0  0  0  0  0  0  0  0  0  0  0  0
    5.2100   -3.2224   27.2498 C   0  0  0  0  0  0  0  0  0  0  0  0
    5.9161   -2.2735   26.5258 N   0  0  0  0  0  0  0  0  0  0  0  0
    4.9771   -1.4968   26.0395 C   0  0  0  0  0  0  0  0  0  0  0  0
    3.7190   -1.8283   26.4246 O   0  0  0  0  0  0  0  0  0  0  0  0
    3.8631   -2.9775   27.1424 C   0  0  0  0  0  0  0  0  0  0  0  0
    2.6593   -3.6300   27.6887 C   0  0  0  0  0  0  0  0  0  0  0  0
    2.4707   -4.9240   27.0639 N   0  0  0  0  0  0  0  0  0  0  0  0
    5.2371   -7.4430   29.1652 H   0  0  0  0  0  0  0  0  0  0  0  0
    6.5676   -6.4129   29.7088 H   0  0  0  0  0  0  0  0  0  0  0  0
    6.5674   -7.2883   28.1497 H   0  0  0  0  0  0  0  0  0  0  0  0
    4.2831   -5.4718   28.8108 H   0  0  0  0  0  0  0  0  0  0  0  0
    4.8842   -5.8916   27.2224 H   0  0  0  0  0  0  0  0  0  0  0  0
    7.5591   -3.5214   27.1757 H   0  0  0  0  0  0  0  0  0  0  0  0
    6.3972   -5.3794   25.4161 H   0  0  0  0  0  0  0  0  0  0  0  0
    7.0545   -7.3883   24.4542 H   0  0  0  0  0  0  0  0  0  0  0  0
   10.4635   -9.2801   27.0724 H   0  0  0  0  0  0  0  0  0  0  0  0
   11.5126   -8.6627   29.2346 H   0  0  0  0  0  0  0  0  0  0  0  0
   10.9028   -6.5264   30.3438 H   0  0  0  0  0  0  0  0  0  0  0  0
    9.2486   -5.0192   29.3178 H   0  0  0  0  0  0  0  0  0  0  0  0
    7.0791   -1.8200   29.7836 H   0  0  0  0  0  0  0  0  0  0  0  0
    5.5514   -0.0586   29.9697 H   0  0  0  0  0  0  0  0  0  0  0  0
    3.6874    0.7233   28.5053 H   0  0  0  0  0  0  0  0  0  0  0  0
    1.2518    1.0142   28.3974 H   0  0  0  0  0  0  0  0  0  0  0  0
   -0.2462   -0.5071   29.6367 H   0  0  0  0  0  0  0  0  0  0  0  0
   -0.5763   -2.7490   29.4110 H   0  0  0  0  0  0  0  0  0  0  0  0
   -0.4335   -2.9268   29.3437 H   0  0  0  0  0  0  0  0  0  0  0  0
    3.1997   -2.6446   31.1523 H   0  0  0  0  0  0  0  0  0  0  0  0
    5.0746   -0.6368   25.3909 H   0  0  0  0  0  0  0  0  0  0  0  0
    2.7786   -3.8054   28.7587 H   0  0  0  0  0  0  0  0  0  0  0  0
    1.7796   -2.9950   27.5803 H   0  0  0  0  0  0  0  0  0  0  0  0
    1.5517   -5.3189   27.2432 H   0  0  0  0  0  0  0  0  0  0  0  0
    2.7325   -4.9399   26.0829 H   0  0  0  0  0  0  0  0  0  0  0  0
  1  2  1  0
  2  3  1  0
  3  4  1  0
  4  5  1  0
  5  6  2  0
  6  7  1  0
  7  8  1  0
  8  9  2  0
  8 10  1  0
 10 11  2  0
 11 12  1  0
 12 13  2  0
 13 14  1  0
 14 15  2  0
  3 16  1  0
 16 17  2  0
 16 18  1  0
 18 19  2  3
 19 20  1  0
 20 21  2  0
 21 22  1  0
 22 23  2  0
 23 24  1  0
 24 25  1  0
 25 26  1  0
 25 27  2  0
 24 28  2  0
  3 29  1  0
 29 30  1  0
 30 31  2  0
 31 32  1  0
 32 33  1  0
 33 34  1  0
 34 35  1  0
 15  5  1  0
 28 20  1  0
 33 29  2  0
 15 10  1  0
  1 36  1  0
  1 37  1  0
  1 38  1  0
  2 39  1  0
  2 40  1  0
  4 41  1  0
  6 42  1  0
  7 43  1  0
 11 44  1  0
 12 45  1  0
 13 46  1  0
 14 47  1  0
 18 48  1  0
 19 49  1  0
 21 50  1  0
 22 51  1  0
 23 52  1  0
 26 53  1  0
 26 54  1  0
 28 55  1  0
 31 56  1  0
 34 57  1  0
 34 58  1  0
 35 59  1  0
 35 60  1  0
M  END
>  <Energy>  (840) 
331.96396467559356

>  <compound_id>  (840) 
282

>  <target_id>  (840) 
1

>  <reference_id>  (840) 
142

>  <inspiration_ids>  (840) 
[154, 142]

>  <energy_score>  (840) 
151.97612600824232

>  <distance_score>  (840) 
3.412001123316906

>  <path>  (840) 
/opt/xchem-fragalysis-2/maxwin/BulkDock/SCRATCH/505735/C282-P142/C282-P142.minimised.mol

>  <scratch_subdir>  (840) 
/opt/xchem-fragalysis-2/maxwin/BulkDock/SCRATCH/505735/C282-P142

>  <fragmenstein_runtime>  (840) 
11.692974090576172

>  <fragmenstein_outcome>  (840) 
too moved

>  <fragmenstein_mode>  (840) 
expansion

>  <fragmenstein_error>  (840) 


$$$$
C4390-P154
     RDKit          3D

 74 78  0  0  0  0  0  0  0  0999 V2000
   -1.7968   -8.5582   31.9938 C   0  0  0  0  0  0  0  0  0  0  0  0
   -0.8823   -7.5013   31.5453 C   0  0  0  0  0  0  0  0  0  0  0  0
   -0.1388   -7.6353   30.4032 C   0  0  0  0  0  0  0  0  0  0  0  0
    0.7238   -6.6127   30.1840 C   0  0  0  0  0  0  0  0  0  0  0  0
    1.5614   -6.6335   29.1163 O   0  0  0  0  0  0  0  0  0  0  0  0
    0.8863   -5.5623   30.9812 N   0  0  0  0  0  0  0  0  0  0  0  0
    0.0904   -5.5155   32.0598 C   0  0  0  0  0  0  0  0  0  0  0  0
    0.1311   -4.3183   32.9521 C   0  0  0  0  0  0  0  0  0  0  0  0
    1.4967   -3.6540   33.0799 C   0  0  0  0  0  0  0  0  0  0  0  0
    2.0375   -3.2381   31.7848 N   0  0  0  0  0  0  0  0  0  0  0  0
    1.9652   -1.6834   31.2495 S   0  0  0  0  0  0  0  0  0  0  0  0
    2.2833   -0.7862   32.3320 O   0  0  0  0  0  0  0  0  0  0  0  0
    2.6885   -1.6477   30.0007 O   0  0  0  0  0  0  0  0  0  0  0  0
    0.3193   -1.5024   30.9026 N   0  0  0  0  0  0  0  0  0  0  0  0
   -0.0040   -0.1234   30.3653 C   0  0  0  0  0  0  0  0  0  0  0  0
   -1.2085   -0.1560   29.4033 C   0  0  0  0  0  0  0  0  0  0  0  0
   -1.1173   -1.1321   28.3481 O   0  0  0  0  0  0  0  0  0  0  0  0
   -0.0531   -2.0717   28.5657 C   0  0  0  0  0  0  0  0  0  0  0  0
   -0.0470   -3.3006   27.6570 C   0  0  0  0  0  0  0  0  0  0  0  0
    0.9948   -3.3363   26.6385 N   0  0  0  0  0  0  0  0  0  0  0  0
    2.3121   -3.7678   27.0000 C   0  0  0  0  0  0  0  0  0  0  0  0
    2.4350   -4.0078   28.4404 N   0  0  0  0  0  0  0  0  0  0  0  0
    3.3918   -2.8649   26.5273 C   0  0  0  0  0  0  0  0  0  0  0  0
    3.1142   -1.7029   25.8686 O   0  0  0  0  0  0  0  0  0  0  0  0
    4.3492   -1.2325   25.5303 C   0  0  0  0  0  0  0  0  0  0  0  0
    5.3666   -1.9777   25.9101 N   0  0  0  0  0  0  0  0  0  0  0  0
    4.7606   -3.0015   26.5846 C   0  0  0  0  0  0  0  0  0  0  0  0
    5.4003   -4.1301   27.2301 C   0  0  0  0  0  0  0  0  0  0  0  0
    5.2091   -4.3389   28.3620 O   0  0  0  0  0  0  0  0  0  0  0  0
    6.1877   -4.9383   26.1866 N   0  0  0  0  0  0  0  0  0  0  0  0
    6.7934   -6.1524   26.2820 C   0  0  0  0  0  0  0  0  0  0  0  0
    6.7411   -6.9627   25.2147 C   0  0  0  0  0  0  0  0  0  0  0  0
    7.1273   -8.2737   25.2707 N   0  0  0  0  0  0  0  0  0  0  0  0
    7.5992   -8.8920   26.4014 C   0  0  0  0  0  0  0  0  0  0  0  0
    7.8758  -10.0850   26.4272 O   0  0  0  0  0  0  0  0  0  0  0  0
    7.7593   -8.0218   27.5965 C   0  0  0  0  0  0  0  0  0  0  0  0
    8.3428   -8.5521   28.7512 C   0  0  0  0  0  0  0  0  0  0  0  0
    8.5588   -7.7419   29.8644 C   0  0  0  0  0  0  0  0  0  0  0  0
    8.2239   -6.3963   29.8100 C   0  0  0  0  0  0  0  0  0  0  0  0
    7.6689   -5.8646   28.6447 C   0  0  0  0  0  0  0  0  0  0  0  0
    7.3773   -6.6724   27.5343 C   0  0  0  0  0  0  0  0  0  0  0  0
   -0.2152   -2.5405   29.9958 C   0  0  0  0  0  0  0  0  0  0  0  0
   -0.8303   -6.4297   32.3433 N   0  0  0  0  0  0  0  0  0  0  0  0
   -1.4860   -9.5141   31.5794 H   0  0  0  0  0  0  0  0  0  0  0  0
   -1.8111   -8.5950   33.0826 H   0  0  0  0  0  0  0  0  0  0  0  0
   -2.7972   -8.3262   31.6447 H   0  0  0  0  0  0  0  0  0  0  0  0
   -0.1857   -8.4991   29.7580 H   0  0  0  0  0  0  0  0  0  0  0  0
    1.7998   -5.6799   29.0187 H   0  0  0  0  0  0  0  0  0  0  0  0
   -0.6105   -3.5972   32.5928 H   0  0  0  0  0  0  0  0  0  0  0  0
   -0.1915   -4.6178   33.9571 H   0  0  0  0  0  0  0  0  0  0  0  0
    2.2109   -4.3611   33.5190 H   0  0  0  0  0  0  0  0  0  0  0  0
    1.4359   -2.8050   33.7685 H   0  0  0  0  0  0  0  0  0  0  0  0
    2.0922   -3.9665   31.0666 H   0  0  0  0  0  0  0  0  0  0  0  0
   -0.2229    0.5363   31.2115 H   0  0  0  0  0  0  0  0  0  0  0  0
    0.8587    0.2884   29.8284 H   0  0  0  0  0  0  0  0  0  0  0  0
   -2.1188   -0.3822   29.9694 H   0  0  0  0  0  0  0  0  0  0  0  0
   -1.3517    0.8258   28.9409 H   0  0  0  0  0  0  0  0  0  0  0  0
    0.8780   -1.5231   28.3939 H   0  0  0  0  0  0  0  0  0  0  0  0
   -0.9899   -3.3689   27.1535 H   0  0  0  0  0  0  0  0  0  0  0  0
   -0.0167   -4.2178   28.2487 H   0  0  0  0  0  0  0  0  0  0  0  0
    0.9947   -2.5049   26.0460 H   0  0  0  0  0  0  0  0  0  0  0  0
    2.4758   -4.7327   26.5062 H   0  0  0  0  0  0  0  0  0  0  0  0
    2.5116   -3.0647   28.8551 H   0  0  0  0  0  0  0  0  0  0  0  0
    3.3923   -4.3514   28.6124 H   0  0  0  0  0  0  0  0  0  0  0  0
    4.3750   -0.3057   24.9773 H   0  0  0  0  0  0  0  0  0  0  0  0
    6.2196   -4.4207   25.3093 H   0  0  0  0  0  0  0  0  0  0  0  0
    6.2917   -6.6609   24.2720 H   0  0  0  0  0  0  0  0  0  0  0  0
    6.8790   -8.8715   24.4772 H   0  0  0  0  0  0  0  0  0  0  0  0
    8.6473   -9.5944   28.7616 H   0  0  0  0  0  0  0  0  0  0  0  0
    9.0223   -8.1455   30.7598 H   0  0  0  0  0  0  0  0  0  0  0  0
    8.4253   -5.7460   30.6577 H   0  0  0  0  0  0  0  0  0  0  0  0
    7.5058   -4.7916   28.6183 H   0  0  0  0  0  0  0  0  0  0  0  0
   -1.2681   -2.7150   30.2536 H   0  0  0  0  0  0  0  0  0  0  0  0
    0.2857   -3.4811   30.1526 H   0  0  0  0  0  0  0  0  0  0  0  0
  1  2  1  0
  2  3  2  0
  3  4  1  0
  4  5  1  0
  4  6  2  0
  6  7  1  0
  7  8  1  0
  8  9  1  0
  9 10  1  0
 10 11  1  0
 11 12  2  0
 11 13  2  0
 11 14  1  0
 14 15  1  0
 15 16  1  0
 16 17  1  0
 17 18  1  0
 18 19  1  0
 19 20  1  0
 20 21  1  0
 21 22  1  0
 21 23  1  0
 23 24  1  0
 24 25  1  0
 25 26  2  0
 26 27  1  0
 27 28  1  0
 28 29  2  0
 28 30  1  0
 30 31  1  0
 31 32  2  0
 32 33  1  0
 33 34  1  0
 34 35  2  0
 34 36  1  0
 36 37  2  0
 37 38  1  0
 38 39  2  0
 39 40  1  0
 40 41  2  0
 18 42  1  0
  7 43  2  0
 43  2  1  0
 42 14  1  0
 27 23  2  0
 41 31  1  0
 41 36  1  0
  1 44  1  0
  1 45  1  0
  1 46  1  0
  3 47  1  0
  5 48  1  0
  8 49  1  0
  8 50  1  0
  9 51  1  0
  9 52  1  0
 10 53  1  0
 15 54  1  0
 15 55  1  0
 16 56  1  0
 16 57  1  0
 18 58  1  0
 19 59  1  0
 19 60  1  0
 20 61  1  0
 21 62  1  0
 22 63  1  0
 22 64  1  0
 25 65  1  0
 30 66  1  0
 32 67  1  0
 33 68  1  0
 37 69  1  0
 38 70  1  0
 39 71  1  0
 40 72  1  0
 42 73  1  0
 42 74  1  0
M  END
>  <Energy>  (841) 
-129.39863886466398

>  <compound_id>  (841) 
4390

>  <target_id>  (841) 
1

>  <reference_id>  (841) 
154

>  <inspiration_ids>  (841) 
[154, 147]

>  <energy_score>  (841) 
-86.07090774603353

>  <distance_score>  (841) 
1.4531749936265332

>  <path>  (841) 
/opt/xchem-fragalysis-2/maxwin/BulkDock/SCRATCH/505735/C4390-P154/C4390-P154.minimised.mol

>  <scratch_subdir>  (841) 
/opt/xchem-fragalysis-2/maxwin/BulkDock/SCRATCH/505735/C4390-P154

>  <fragmenstein_runtime>  (841) 
28.294895887374878

>  <fragmenstein_outcome>  (841) 
too moved

>  <fragmenstein_mode>  (841) 
expansion

>  <fragmenstein_error>  (841) 


$$$$
C4390-P147
     RDKit          3D

 74 78  0  0  0  0  0  0  0  0999 V2000
   -1.7390   -7.7017   34.7252 C   0  0  0  0  0  0  0  0  0  0  0  0
   -1.1487   -7.3984   33.3867 C   0  0  0  0  0  0  0  0  0  0  0  0
   -1.5371   -7.9743   32.2060 C   0  0  0  0  0  0  0  0  0  0  0  0
   -0.9017   -7.5078   31.0851 C   0  0  0  0  0  0  0  0  0  0  0  0
   -1.2538   -7.9275   29.8540 O   0  0  0  0  0  0  0  0  0  0  0  0
    0.0435   -6.5735   31.0510 N   0  0  0  0  0  0  0  0  0  0  0  0
    0.3806   -6.1139   32.2569 C   0  0  0  0  0  0  0  0  0  0  0  0
    1.4037   -5.0444   32.3625 C   0  0  0  0  0  0  0  0  0  0  0  0
    0.7356   -3.7506   32.8320 C   0  0  0  0  0  0  0  0  0  0  0  0
    1.0876   -2.6890   31.8681 N   0  0  0  0  0  0  0  0  0  0  0  0
    0.2029   -1.2642   31.9350 S   0  0  0  0  0  0  0  0  0  0  0  0
   -0.2652   -1.0730   33.2839 O   0  0  0  0  0  0  0  0  0  0  0  0
    1.0773   -0.3006   31.3073 O   0  0  0  0  0  0  0  0  0  0  0  0
   -1.1477   -1.5661   30.9312 N   0  0  0  0  0  0  0  0  0  0  0  0
   -1.4828   -0.3769   30.0272 C   0  0  0  0  0  0  0  0  0  0  0  0
   -1.5338   -0.7283   28.5238 C   0  0  0  0  0  0  0  0  0  0  0  0
   -0.5150   -1.6169   28.0681 O   0  0  0  0  0  0  0  0  0  0  0  0
   -0.0106   -2.4845   29.0803 C   0  0  0  0  0  0  0  0  0  0  0  0
    0.7421   -3.6968   28.5685 C   0  0  0  0  0  0  0  0  0  0  0  0
    1.9023   -3.4090   27.7104 N   0  0  0  0  0  0  0  0  0  0  0  0
    2.7835   -2.3443   28.1399 C   0  0  0  0  0  0  0  0  0  0  0  0
    2.1815   -1.0487   27.9284 N   0  0  0  0  0  0  0  0  0  0  0  0
    4.0896   -2.2942   27.4423 C   0  0  0  0  0  0  0  0  0  0  0  0
    4.7639   -1.0974   27.5405 O   0  0  0  0  0  0  0  0  0  0  0  0
    5.9804   -1.3433   27.0193 C   0  0  0  0  0  0  0  0  0  0  0  0
    6.1668   -2.5699   26.6046 N   0  0  0  0  0  0  0  0  0  0  0  0
    4.9315   -3.1754   26.8076 C   0  0  0  0  0  0  0  0  0  0  0  0
    4.7405   -4.6012   26.6063 C   0  0  0  0  0  0  0  0  0  0  0  0
    3.7051   -5.1124   26.4542 O   0  0  0  0  0  0  0  0  0  0  0  0
    6.1375   -5.2103   26.7457 N   0  0  0  0  0  0  0  0  0  0  0  0
    6.5497   -6.4872   26.6411 C   0  0  0  0  0  0  0  0  0  0  0  0
    6.1870   -7.2947   25.6408 C   0  0  0  0  0  0  0  0  0  0  0  0
    6.7140   -8.5545   25.5239 N   0  0  0  0  0  0  0  0  0  0  0  0
    7.6225   -9.1020   26.4034 C   0  0  0  0  0  0  0  0  0  0  0  0
    8.1205  -10.2082   26.2376 O   0  0  0  0  0  0  0  0  0  0  0  0
    7.9609   -8.2750   27.5940 C   0  0  0  0  0  0  0  0  0  0  0  0
    8.7663   -8.7912   28.6122 C   0  0  0  0  0  0  0  0  0  0  0  0
    9.0215   -8.0365   29.7595 C   0  0  0  0  0  0  0  0  0  0  0  0
    8.4778   -6.7637   29.8932 C   0  0  0  0  0  0  0  0  0  0  0  0
    7.6944   -6.2379   28.8687 C   0  0  0  0  0  0  0  0  0  0  0  0
    7.4359   -6.9847   27.7019 C   0  0  0  0  0  0  0  0  0  0  0  0
   -1.0760   -2.7976   30.1021 C   0  0  0  0  0  0  0  0  0  0  0  0
   -0.1677   -6.4897   33.4146 N   0  0  0  0  0  0  0  0  0  0  0  0
   -2.6324   -8.3261   34.6610 H   0  0  0  0  0  0  0  0  0  0  0  0
   -0.9943   -8.1913   35.3597 H   0  0  0  0  0  0  0  0  0  0  0  0
   -2.0140   -6.7655   35.2181 H   0  0  0  0  0  0  0  0  0  0  0  0
   -2.3192   -8.7086   32.1544 H   0  0  0  0  0  0  0  0  0  0  0  0
   -0.7757   -7.2772   29.3077 H   0  0  0  0  0  0  0  0  0  0  0  0
    2.1590   -5.3548   33.0953 H   0  0  0  0  0  0  0  0  0  0  0  0
    1.9303   -4.9281   31.4094 H   0  0  0  0  0  0  0  0  0  0  0  0
    1.1305   -3.4723   33.8160 H   0  0  0  0  0  0  0  0  0  0  0  0
   -0.3535   -3.8389   32.9120 H   0  0  0  0  0  0  0  0  0  0  0  0
    2.0663   -2.4066   31.9701 H   0  0  0  0  0  0  0  0  0  0  0  0
   -2.4522    0.0145   30.3513 H   0  0  0  0  0  0  0  0  0  0  0  0
   -0.7721    0.4428   30.1591 H   0  0  0  0  0  0  0  0  0  0  0  0
   -2.4828   -1.2090   28.2795 H   0  0  0  0  0  0  0  0  0  0  0  0
   -1.4876    0.1846   27.9210 H   0  0  0  0  0  0  0  0  0  0  0  0
    0.7547   -1.9061   29.5754 H   0  0  0  0  0  0  0  0  0  0  0  0
    0.0216   -4.2898   28.0113 H   0  0  0  0  0  0  0  0  0  0  0  0
    1.0856   -4.3096   29.4058 H   0  0  0  0  0  0  0  0  0  0  0  0
    2.4279   -4.2701   27.5481 H   0  0  0  0  0  0  0  0  0  0  0  0
    3.0096   -2.4786   29.2060 H   0  0  0  0  0  0  0  0  0  0  0  0
    2.0691   -0.5488   28.8043 H   0  0  0  0  0  0  0  0  0  0  0  0
    1.2466   -1.1837   27.5359 H   0  0  0  0  0  0  0  0  0  0  0  0
    6.6798   -0.5194   27.0072 H   0  0  0  0  0  0  0  0  0  0  0  0
    6.8112   -4.4723   26.9502 H   0  0  0  0  0  0  0  0  0  0  0  0
    5.5281   -6.9835   24.8337 H   0  0  0  0  0  0  0  0  0  0  0  0
    6.4473   -9.0997   24.6967 H   0  0  0  0  0  0  0  0  0  0  0  0
    9.1938   -9.7846   28.5104 H   0  0  0  0  0  0  0  0  0  0  0  0
    9.6533   -8.4443   30.5450 H   0  0  0  0  0  0  0  0  0  0  0  0
    8.6754   -6.1775   30.7870 H   0  0  0  0  0  0  0  0  0  0  0  0
    7.2807   -5.2425   29.0055 H   0  0  0  0  0  0  0  0  0  0  0  0
   -2.0512   -2.9809   29.6432 H   0  0  0  0  0  0  0  0  0  0  0  0
   -0.8709   -3.6769   30.7112 H   0  0  0  0  0  0  0  0  0  0  0  0
  1  2  1  0
  2  3  2  0
  3  4  1  0
  4  5  1  0
  4  6  2  0
  6  7  1  0
  7  8  1  0
  8  9  1  0
  9 10  1  0
 10 11  1  0
 11 12  2  0
 11 13  2  0
 11 14  1  0
 14 15  1  0
 15 16  1  0
 16 17  1  0
 17 18  1  0
 18 19  1  0
 19 20  1  0
 20 21  1  0
 21 22  1  0
 21 23  1  0
 23 24  1  0
 24 25  1  0
 25 26  2  0
 26 27  1  0
 27 28  1  0
 28 29  2  0
 28 30  1  0
 30 31  1  0
 31 32  2  0
 32 33  1  0
 33 34  1  0
 34 35  2  0
 34 36  1  0
 36 37  2  0
 37 38  1  0
 38 39  2  0
 39 40  1  0
 40 41  2  0
 18 42  1  0
  7 43  2  0
 43  2  1  0
 42 14  1  0
 27 23  2  0
 41 31  1  0
 41 36  1  0
  1 44  1  0
  1 45  1  0
  1 46  1  0
  3 47  1  0
  5 48  1  0
  8 49  1  0
  8 50  1  0
  9 51  1  0
  9 52  1  0
 10 53  1  0
 15 54  1  0
 15 55  1  0
 16 56  1  0
 16 57  1  0
 18 58  1  0
 19 59  1  0
 19 60  1  0
 20 61  1  0
 21 62  1  0
 22 63  1  0
 22 64  1  0
 25 65  1  0
 30 66  1  0
 32 67  1  0
 33 68  1  0
 37 69  1  0
 38 70  1  0
 39 71  1  0
 40 72  1  0
 42 73  1  0
 42 74  1  0
M  END
>  <Energy>  (842) 
-111.91952815032396

>  <compound_id>  (842) 
4390

>  <target_id>  (842) 
1

>  <reference_id>  (842) 
147

>  <inspiration_ids>  (842) 
[154, 147]

>  <energy_score>  (842) 
-68.5917970316973

>  <distance_score>  (842) 
1.6386018293445304

>  <path>  (842) 
/opt/xchem-fragalysis-2/maxwin/BulkDock/SCRATCH/505735/C4390-P147/C4390-P147.minimised.mol

>  <scratch_subdir>  (842) 
/opt/xchem-fragalysis-2/maxwin/BulkDock/SCRATCH/505735/C4390-P147

>  <fragmenstein_runtime>  (842) 
13.476795434951782

>  <fragmenstein_outcome>  (842) 
too moved

>  <fragmenstein_mode>  (842) 
expansion

>  <fragmenstein_error>  (842) 


$$$$
C4391-P154
     RDKit          3D

 68 72  0  0  0  0  0  0  0  0999 V2000
   -3.5096   -1.4582   38.1783 C   0  0  0  0  0  0  0  0  0  0  0  0
   -3.4440   -1.3062   36.6730 C   0  0  0  0  0  0  0  0  0  0  0  0
   -1.8219   -1.6279   35.9960 S   0  0  0  0  0  0  0  0  0  0  0  0
   -1.9409   -1.7025   34.5573 O   0  0  0  0  0  0  0  0  0  0  0  0
   -0.8716   -0.7392   36.6271 O   0  0  0  0  0  0  0  0  0  0  0  0
   -1.4683   -3.1723   36.5962 N   0  0  0  0  0  0  0  0  0  0  0  0
   -0.4818   -3.8940   35.7599 C   0  0  0  0  0  0  0  0  0  0  0  0
    0.0824   -5.1426   36.3741 C   0  0  0  0  0  0  0  0  0  0  0  0
   -0.4070   -5.5591   37.6574 C   0  0  0  0  0  0  0  0  0  0  0  0
    0.2179   -6.5755   38.3263 C   0  0  0  0  0  0  0  0  0  0  0  0
    1.2745   -7.2102   37.7462 C   0  0  0  0  0  0  0  0  0  0  0  0
    1.7465   -6.8738   36.4726 C   0  0  0  0  0  0  0  0  0  0  0  0
    1.1600   -5.8168   35.7170 C   0  0  0  0  0  0  0  0  0  0  0  0
    1.9179   -5.3100   34.3843 C   0  0  0  0  0  0  0  0  0  0  0  0
    1.3708   -4.8568   32.8971 C   0  0  0  0  0  0  0  0  0  0  0  0
    2.5154   -4.4218   31.9942 N   0  0  0  0  0  0  0  0  0  0  0  0
    2.5507   -4.2499   30.6135 C   0  0  0  0  0  0  0  0  0  0  0  0
    3.5438   -4.6718   29.8482 N   0  0  0  0  0  0  0  0  0  0  0  0
    3.2011   -4.3088   28.5438 C   0  0  0  0  0  0  0  0  0  0  0  0
    3.9864   -4.7547   27.3799 C   0  0  0  0  0  0  0  0  0  0  0  0
    3.7322   -4.4743   26.2791 O   0  0  0  0  0  0  0  0  0  0  0  0
    5.0714   -5.6801   27.9455 N   0  0  0  0  0  0  0  0  0  0  0  0
    5.9667   -6.4886   27.3095 C   0  0  0  0  0  0  0  0  0  0  0  0
    5.8332   -6.9212   26.0445 C   0  0  0  0  0  0  0  0  0  0  0  0
    6.6153   -7.9375   25.5399 N   0  0  0  0  0  0  0  0  0  0  0  0
    7.5675   -8.6152   26.2723 C   0  0  0  0  0  0  0  0  0  0  0  0
    8.1852   -9.5800   25.8353 O   0  0  0  0  0  0  0  0  0  0  0  0
    7.8315   -8.0923   27.6388 C   0  0  0  0  0  0  0  0  0  0  0  0
    8.8617   -8.6359   28.4118 C   0  0  0  0  0  0  0  0  0  0  0  0
    9.1761   -8.0760   29.6511 C   0  0  0  0  0  0  0  0  0  0  0  0
    8.4709   -6.9731   30.1189 C   0  0  0  0  0  0  0  0  0  0  0  0
    7.4364   -6.4401   29.3546 C   0  0  0  0  0  0  0  0  0  0  0  0
    7.0801   -7.0141   28.1193 C   0  0  0  0  0  0  0  0  0  0  0  0
    2.0461   -3.5607   28.5663 C   0  0  0  0  0  0  0  0  0  0  0  0
    1.2547   -2.8407   27.5241 C   0  0  0  0  0  0  0  0  0  0  0  0
    1.2386   -3.5094   26.2307 N   0  0  0  0  0  0  0  0  0  0  0  0
    1.6153   -3.5216   29.8976 O   0  0  0  0  0  0  0  0  0  0  0  0
    1.8297   -8.1466   38.5617 O   0  0  0  0  0  0  0  0  0  0  0  0
    0.9746   -8.0330   39.7202 C   0  0  0  0  0  0  0  0  0  0  0  0
   -0.0551   -7.0297   39.5719 O   0  0  0  0  0  0  0  0  0  0  0  0
   -2.7865   -0.8036   38.6747 H   0  0  0  0  0  0  0  0  0  0  0  0
   -4.5090   -1.1984   38.5406 H   0  0  0  0  0  0  0  0  0  0  0  0
   -3.2990   -2.4861   38.4876 H   0  0  0  0  0  0  0  0  0  0  0  0
   -3.6963   -0.2796   36.3877 H   0  0  0  0  0  0  0  0  0  0  0  0
   -4.1508   -1.9751   36.1751 H   0  0  0  0  0  0  0  0  0  0  0  0
   -1.0818   -3.0371   37.5340 H   0  0  0  0  0  0  0  0  0  0  0  0
    0.3652   -3.2151   35.5927 H   0  0  0  0  0  0  0  0  0  0  0  0
   -0.9198   -4.1376   34.7917 H   0  0  0  0  0  0  0  0  0  0  0  0
   -1.2341   -5.0614   38.1495 H   0  0  0  0  0  0  0  0  0  0  0  0
    2.6191   -7.4004   36.0958 H   0  0  0  0  0  0  0  0  0  0  0  0
    2.6393   -6.1094   34.1595 H   0  0  0  0  0  0  0  0  0  0  0  0
    2.5286   -4.4674   34.7400 H   0  0  0  0  0  0  0  0  0  0  0  0
    0.6699   -4.0248   33.0042 H   0  0  0  0  0  0  0  0  0  0  0  0
    0.8548   -5.7108   32.4465 H   0  0  0  0  0  0  0  0  0  0  0  0
    3.3824   -4.8531   32.2990 H   0  0  0  0  0  0  0  0  0  0  0  0
    5.0629   -5.6313   28.9596 H   0  0  0  0  0  0  0  0  0  0  0  0
    5.0445   -6.5790   25.3799 H   0  0  0  0  0  0  0  0  0  0  0  0
    6.3959   -8.3094   24.6089 H   0  0  0  0  0  0  0  0  0  0  0  0
    9.4368   -9.4791   28.0346 H   0  0  0  0  0  0  0  0  0  0  0  0
    9.9950   -8.4879   30.2362 H   0  0  0  0  0  0  0  0  0  0  0  0
    8.7384   -6.5191   31.0696 H   0  0  0  0  0  0  0  0  0  0  0  0
    6.9402   -5.5524   29.7366 H   0  0  0  0  0  0  0  0  0  0  0  0
    0.2227   -2.7251   27.8720 H   0  0  0  0  0  0  0  0  0  0  0  0
    1.6726   -1.8350   27.4037 H   0  0  0  0  0  0  0  0  0  0  0  0
    0.8080   -2.8968   25.5299 H   0  0  0  0  0  0  0  0  0  0  0  0
    2.1974   -3.6395   25.8891 H   0  0  0  0  0  0  0  0  0  0  0  0
    1.5954   -7.7663   40.5835 H   0  0  0  0  0  0  0  0  0  0  0  0
    0.4986   -8.9947   39.9218 H   0  0  0  0  0  0  0  0  0  0  0  0
  1  2  1  0
  2  3  1  0
  3  4  2  0
  3  5  2  0
  3  6  1  0
  6  7  1  0
  7  8  1  0
  8  9  2  0
  9 10  1  0
 10 11  2  0
 11 12  1  0
 12 13  2  0
 13 14  1  0
 14 15  1  0
 15 16  1  0
 16 17  1  0
 17 18  2  0
 18 19  1  0
 19 20  1  0
 20 21  2  0
 20 22  1  0
 22 23  1  0
 23 24  2  0
 24 25  1  0
 25 26  1  0
 26 27  2  0
 26 28  1  0
 28 29  2  0
 29 30  1  0
 30 31  2  0
 31 32  1  0
 32 33  2  0
 19 34  2  0
 34 35  1  0
 35 36  1  0
 34 37  1  0
 11 38  1  0
 38 39  1  0
 39 40  1  0
 13  8  1  0
 37 17  1  0
 40 10  1  0
 33 23  1  0
 33 28  1  0
  1 41  1  0
  1 42  1  0
  1 43  1  0
  2 44  1  0
  2 45  1  0
  6 46  1  0
  7 47  1  0
  7 48  1  0
  9 49  1  0
 12 50  1  0
 14 51  1  0
 14 52  1  0
 15 53  1  0
 15 54  1  0
 16 55  1  0
 22 56  1  0
 24 57  1  0
 25 58  1  0
 29 59  1  0
 30 60  1  0
 31 61  1  0
 32 62  1  0
 35 63  1  0
 35 64  1  0
 36 65  1  0
 36 66  1  0
 39 67  1  0
 39 68  1  0
M  END
>  <Energy>  (843) 
-10.149142064114237

>  <compound_id>  (843) 
4391

>  <target_id>  (843) 
1

>  <reference_id>  (843) 
154

>  <inspiration_ids>  (843) 
[154, 150]

>  <energy_score>  (843) 
-79.76930442634975

>  <distance_score>  (843) 
2.739848666886879

>  <path>  (843) 
/opt/xchem-fragalysis-2/maxwin/BulkDock/SCRATCH/505735/C4391-P154/C4391-P154.minimised.mol

>  <scratch_subdir>  (843) 
/opt/xchem-fragalysis-2/maxwin/BulkDock/SCRATCH/505735/C4391-P154

>  <fragmenstein_runtime>  (843) 
13.985400438308716

>  <fragmenstein_outcome>  (843) 
too moved

>  <fragmenstein_mode>  (843) 
expansion

>  <fragmenstein_error>  (843) 


$$$$
C4391-P150
     RDKit          3D

 68 72  0  0  0  0  0  0  0  0999 V2000
   -3.1889   -1.9267   39.5007 C   0  0  0  0  0  0  0  0  0  0  0  0
   -2.3776   -1.0471   38.5703 C   0  0  0  0  0  0  0  0  0  0  0  0
   -2.0975   -1.8000   36.9734 S   0  0  0  0  0  0  0  0  0  0  0  0
   -3.3733   -2.2072   36.4344 O   0  0  0  0  0  0  0  0  0  0  0  0
   -1.1862   -0.9599   36.2279 O   0  0  0  0  0  0  0  0  0  0  0  0
   -1.2074   -3.1647   37.4075 N   0  0  0  0  0  0  0  0  0  0  0  0
   -1.0902   -4.2038   36.3652 C   0  0  0  0  0  0  0  0  0  0  0  0
   -0.0574   -5.2160   36.7768 C   0  0  0  0  0  0  0  0  0  0  0  0
   -0.2512   -5.7246   38.1054 C   0  0  0  0  0  0  0  0  0  0  0  0
    0.6336   -6.6305   38.6037 C   0  0  0  0  0  0  0  0  0  0  0  0
    1.6748   -7.0496   37.8232 C   0  0  0  0  0  0  0  0  0  0  0  0
    1.8849   -6.5980   36.5101 C   0  0  0  0  0  0  0  0  0  0  0  0
    1.0144   -5.6523   35.9225 C   0  0  0  0  0  0  0  0  0  0  0  0
    1.1328   -5.2715   34.3635 C   0  0  0  0  0  0  0  0  0  0  0  0
    2.2824   -4.3649   33.6958 C   0  0  0  0  0  0  0  0  0  0  0  0
    1.8999   -3.6822   32.3994 N   0  0  0  0  0  0  0  0  0  0  0  0
    2.5984   -3.6865   31.2102 C   0  0  0  0  0  0  0  0  0  0  0  0
    3.6064   -4.4381   30.8296 N   0  0  0  0  0  0  0  0  0  0  0  0
    3.4579   -4.5310   29.4664 C   0  0  0  0  0  0  0  0  0  0  0  0
    3.8413   -5.6813   28.6415 C   0  0  0  0  0  0  0  0  0  0  0  0
    3.0642   -6.5169   28.4051 O   0  0  0  0  0  0  0  0  0  0  0  0
    5.3125   -5.5456   28.2287 N   0  0  0  0  0  0  0  0  0  0  0  0
    6.1247   -6.4048   27.5548 C   0  0  0  0  0  0  0  0  0  0  0  0
    5.7778   -6.9898   26.3955 C   0  0  0  0  0  0  0  0  0  0  0  0
    6.5269   -7.9964   25.8315 N   0  0  0  0  0  0  0  0  0  0  0  0
    7.6115   -8.5808   26.4464 C   0  0  0  0  0  0  0  0  0  0  0  0
    8.2391   -9.5105   25.9520 O   0  0  0  0  0  0  0  0  0  0  0  0
    7.9951   -8.0115   27.7658 C   0  0  0  0  0  0  0  0  0  0  0  0
    9.0044   -8.6179   28.5170 C   0  0  0  0  0  0  0  0  0  0  0  0
    9.3494   -8.1019   29.7656 C   0  0  0  0  0  0  0  0  0  0  0  0
    8.7105   -6.9674   30.2551 C   0  0  0  0  0  0  0  0  0  0  0  0
    7.7030   -6.3619   29.5097 C   0  0  0  0  0  0  0  0  0  0  0  0
    7.3175   -6.8894   28.2647 C   0  0  0  0  0  0  0  0  0  0  0  0
    2.7286   -3.4586   29.0333 C   0  0  0  0  0  0  0  0  0  0  0  0
    2.4038   -2.9459   27.6961 C   0  0  0  0  0  0  0  0  0  0  0  0
    2.9438   -3.8174   26.6356 N   0  0  0  0  0  0  0  0  0  0  0  0
    2.1247   -2.9092   30.1520 O   0  0  0  0  0  0  0  0  0  0  0  0
    2.4657   -7.9551   38.4682 O   0  0  0  0  0  0  0  0  0  0  0  0
    1.7788   -8.0523   39.7351 C   0  0  0  0  0  0  0  0  0  0  0  0
    0.6237   -7.1968   39.8324 O   0  0  0  0  0  0  0  0  0  0  0  0
   -2.6767   -2.8714   39.7071 H   0  0  0  0  0  0  0  0  0  0  0  0
   -3.3543   -1.4165   40.4546 H   0  0  0  0  0  0  0  0  0  0  0  0
   -4.1664   -2.1646   39.0692 H   0  0  0  0  0  0  0  0  0  0  0  0
   -1.3994   -0.8126   39.0012 H   0  0  0  0  0  0  0  0  0  0  0  0
   -2.9036   -0.1056   38.3827 H   0  0  0  0  0  0  0  0  0  0  0  0
   -0.2702   -2.8620   37.6830 H   0  0  0  0  0  0  0  0  0  0  0  0
   -0.8363   -3.7232   35.4195 H   0  0  0  0  0  0  0  0  0  0  0  0
   -2.0322   -4.7316   36.2823 H   0  0  0  0  0  0  0  0  0  0  0  0
   -1.0892   -5.4001   38.7172 H   0  0  0  0  0  0  0  0  0  0  0  0
    2.7149   -7.0077   35.9415 H   0  0  0  0  0  0  0  0  0  0  0  0
    0.1720   -4.8451   34.0581 H   0  0  0  0  0  0  0  0  0  0  0  0
    1.1609   -6.2385   33.8400 H   0  0  0  0  0  0  0  0  0  0  0  0
    3.1753   -4.9825   33.5494 H   0  0  0  0  0  0  0  0  0  0  0  0
    2.5437   -3.5746   34.4081 H   0  0  0  0  0  0  0  0  0  0  0  0
    1.1592   -2.9927   32.4809 H   0  0  0  0  0  0  0  0  0  0  0  0
    5.7160   -4.7321   28.6787 H   0  0  0  0  0  0  0  0  0  0  0  0
    4.8847   -6.7115   25.8418 H   0  0  0  0  0  0  0  0  0  0  0  0
    6.2315   -8.4009   24.9351 H   0  0  0  0  0  0  0  0  0  0  0  0
    9.5111   -9.5032   28.1382 H   0  0  0  0  0  0  0  0  0  0  0  0
   10.1223   -8.5909   30.3549 H   0  0  0  0  0  0  0  0  0  0  0  0
    8.9846   -6.5700   31.2293 H   0  0  0  0  0  0  0  0  0  0  0  0
    7.2035   -5.5063   29.9530 H   0  0  0  0  0  0  0  0  0  0  0  0
    1.3172   -2.8667   27.6464 H   0  0  0  0  0  0  0  0  0  0  0  0
    2.8307   -1.9430   27.5894 H   0  0  0  0  0  0  0  0  0  0  0  0
    3.9423   -3.9721   26.7958 H   0  0  0  0  0  0  0  0  0  0  0  0
    2.9803   -3.3276   25.7448 H   0  0  0  0  0  0  0  0  0  0  0  0
    2.4815   -7.7814   40.5317 H   0  0  0  0  0  0  0  0  0  0  0  0
    1.4635   -9.0899   39.8891 H   0  0  0  0  0  0  0  0  0  0  0  0
  1  2  1  0
  2  3  1  0
  3  4  2  0
  3  5  2  0
  3  6  1  0
  6  7  1  0
  7  8  1  0
  8  9  2  0
  9 10  1  0
 10 11  2  0
 11 12  1  0
 12 13  2  0
 13 14  1  0
 14 15  1  0
 15 16  1  0
 16 17  1  0
 17 18  2  0
 18 19  1  0
 19 20  1  0
 20 21  2  0
 20 22  1  0
 22 23  1  0
 23 24  2  0
 24 25  1  0
 25 26  1  0
 26 27  2  0
 26 28  1  0
 28 29  2  0
 29 30  1  0
 30 31  2  0
 31 32  1  0
 32 33  2  0
 19 34  2  0
 34 35  1  0
 35 36  1  0
 34 37  1  0
 11 38  1  0
 38 39  1  0
 39 40  1  0
 13  8  1  0
 37 17  1  0
 40 10  1  0
 33 23  1  0
 33 28  1  0
  1 41  1  0
  1 42  1  0
  1 43  1  0
  2 44  1  0
  2 45  1  0
  6 46  1  0
  7 47  1  0
  7 48  1  0
  9 49  1  0
 12 50  1  0
 14 51  1  0
 14 52  1  0
 15 53  1  0
 15 54  1  0
 16 55  1  0
 22 56  1  0
 24 57  1  0
 25 58  1  0
 29 59  1  0
 30 60  1  0
 31 61  1  0
 32 62  1  0
 35 63  1  0
 35 64  1  0
 36 65  1  0
 36 66  1  0
 39 67  1  0
 39 68  1  0
M  END
>  <Energy>  (844) 
14.90229799931762

>  <compound_id>  (844) 
4391

>  <target_id>  (844) 
1

>  <reference_id>  (844) 
150

>  <inspiration_ids>  (844) 
[154, 150]

>  <energy_score>  (844) 
-54.71786436291961

>  <distance_score>  (844) 
2.8703403183776346

>  <path>  (844) 
/opt/xchem-fragalysis-2/maxwin/BulkDock/SCRATCH/505735/C4391-P150/C4391-P150.minimised.mol

>  <scratch_subdir>  (844) 
/opt/xchem-fragalysis-2/maxwin/BulkDock/SCRATCH/505735/C4391-P150

>  <fragmenstein_runtime>  (844) 
16.98218321800232

>  <fragmenstein_outcome>  (844) 
too moved

>  <fragmenstein_mode>  (844) 
expansion

>  <fragmenstein_error>  (844) 


$$$$
C4393-P154
     RDKit          3D

 63 66  0  0  0  0  0  0  0  0999 V2000
    1.8531   -3.0597   24.6476 N   0  0  0  0  0  0  0  0  0  0  0  0
    1.7288   -2.9747   26.0849 C   0  0  0  0  0  0  0  0  0  0  0  0
    3.0558   -2.7386   26.6497 C   0  0  0  0  0  0  0  0  0  0  0  0
    3.3013   -1.5207   27.2062 O   0  0  0  0  0  0  0  0  0  0  0  0
    4.5806   -1.6225   27.6574 C   0  0  0  0  0  0  0  0  0  0  0  0
    5.0147   -0.6811   28.5101 N   0  0  0  0  0  0  0  0  0  0  0  0
    4.0898   -0.2242   29.5401 C   0  0  0  0  0  0  0  0  0  0  0  0
    3.8840   -1.2627   30.6505 C   0  0  0  0  0  0  0  0  0  0  0  0
    2.8444   -2.3497   30.3329 C   0  0  0  0  0  0  0  0  0  0  0  0
    2.4571   -3.2888   31.8146 S   0  0  0  0  0  0  0  0  0  0  0  0
    2.0369   -2.3298   32.8067 O   0  0  0  0  0  0  0  0  0  0  0  0
    3.5338   -4.2180   32.0841 O   0  0  0  0  0  0  0  0  0  0  0  0
    1.0847   -4.1940   31.3727 N   0  0  0  0  0  0  0  0  0  0  0  0
    1.3271   -5.3110   30.4280 C   0  0  0  0  0  0  0  0  0  0  0  0
    0.2115   -6.3254   30.4578 C   0  0  0  0  0  0  0  0  0  0  0  0
   -0.0049   -6.8790   31.8524 C   0  0  0  0  0  0  0  0  0  0  0  0
   -1.3261   -7.4099   31.9061 O   0  0  0  0  0  0  0  0  0  0  0  0
    0.2434   -5.8752   32.9689 C   0  0  0  0  0  0  0  0  0  0  0  0
    0.0956   -4.4621   32.4553 C   0  0  0  0  0  0  0  0  0  0  0  0
    5.1849   -2.7509   27.3741 N   0  0  0  0  0  0  0  0  0  0  0  0
    4.1880   -3.5007   26.7689 C   0  0  0  0  0  0  0  0  0  0  0  0
    4.3330   -4.9017   26.4082 C   0  0  0  0  0  0  0  0  0  0  0  0
    3.4381   -5.5591   26.0630 O   0  0  0  0  0  0  0  0  0  0  0  0
    5.7994   -5.2675   26.6454 N   0  0  0  0  0  0  0  0  0  0  0  0
    6.4232   -6.4645   26.6032 C   0  0  0  0  0  0  0  0  0  0  0  0
    6.1714   -7.3322   25.6163 C   0  0  0  0  0  0  0  0  0  0  0  0
    6.8063   -8.5412   25.5393 N   0  0  0  0  0  0  0  0  0  0  0  0
    7.7118   -8.9980   26.4677 C   0  0  0  0  0  0  0  0  0  0  0  0
    8.2819  -10.0761   26.3544 O   0  0  0  0  0  0  0  0  0  0  0  0
    7.9523   -8.1060   27.6380 C   0  0  0  0  0  0  0  0  0  0  0  0
    8.7587   -8.5427   28.6926 C   0  0  0  0  0  0  0  0  0  0  0  0
    8.9290   -7.7393   29.8212 C   0  0  0  0  0  0  0  0  0  0  0  0
    8.3008   -6.4994   29.8971 C   0  0  0  0  0  0  0  0  0  0  0  0
    7.5103   -6.0535   28.8381 C   0  0  0  0  0  0  0  0  0  0  0  0
    7.3317   -6.8484   27.6917 C   0  0  0  0  0  0  0  0  0  0  0  0
    2.3689   -2.2533   24.2906 H   0  0  0  0  0  0  0  0  0  0  0  0
    0.9193   -2.9237   24.2365 H   0  0  0  0  0  0  0  0  0  0  0  0
    1.0670   -2.1618   26.3880 H   0  0  0  0  0  0  0  0  0  0  0  0
    1.3002   -3.8955   26.4818 H   0  0  0  0  0  0  0  0  0  0  0  0
    5.9420   -0.8823   28.8717 H   0  0  0  0  0  0  0  0  0  0  0  0
    4.5390    0.6688   29.9914 H   0  0  0  0  0  0  0  0  0  0  0  0
    3.1322    0.1021   29.1164 H   0  0  0  0  0  0  0  0  0  0  0  0
    3.5531   -0.7119   31.5397 H   0  0  0  0  0  0  0  0  0  0  0  0
    4.8375   -1.7331   30.9214 H   0  0  0  0  0  0  0  0  0  0  0  0
    1.9102   -1.8977   29.9862 H   0  0  0  0  0  0  0  0  0  0  0  0
    3.2137   -3.0659   29.5985 H   0  0  0  0  0  0  0  0  0  0  0  0
    1.4186   -4.8967   29.4182 H   0  0  0  0  0  0  0  0  0  0  0  0
    2.2696   -5.8078   30.6676 H   0  0  0  0  0  0  0  0  0  0  0  0
   -0.7024   -5.8670   30.0790 H   0  0  0  0  0  0  0  0  0  0  0  0
    0.4336   -7.1589   29.7846 H   0  0  0  0  0  0  0  0  0  0  0  0
    0.6609   -7.7206   32.0120 H   0  0  0  0  0  0  0  0  0  0  0  0
   -1.4191   -7.8831   32.7565 H   0  0  0  0  0  0  0  0  0  0  0  0
   -0.4395   -6.0458   33.8078 H   0  0  0  0  0  0  0  0  0  0  0  0
    1.2646   -6.0065   33.3495 H   0  0  0  0  0  0  0  0  0  0  0  0
    0.1973   -3.7582   33.2856 H   0  0  0  0  0  0  0  0  0  0  0  0
   -0.9083   -4.2940   32.0472 H   0  0  0  0  0  0  0  0  0  0  0  0
    6.2929   -4.4619   27.0248 H   0  0  0  0  0  0  0  0  0  0  0  0
    5.4876   -7.1122   24.7983 H   0  0  0  0  0  0  0  0  0  0  0  0
    6.5843   -9.1318   24.7331 H   0  0  0  0  0  0  0  0  0  0  0  0
    9.2440   -9.5141   28.6356 H   0  0  0  0  0  0  0  0  0  0  0  0
    9.5557   -8.0813   30.6410 H   0  0  0  0  0  0  0  0  0  0  0  0
    8.4289   -5.8775   30.7797 H   0  0  0  0  0  0  0  0  0  0  0  0
    7.0229   -5.0878   28.9398 H   0  0  0  0  0  0  0  0  0  0  0  0
  1  2  1  0
  2  3  1  0
  3  4  1  0
  4  5  1  0
  5  6  1  0
  6  7  1  0
  7  8  1  0
  8  9  1  0
  9 10  1  0
 10 11  2  0
 10 12  2  0
 10 13  1  0
 13 14  1  0
 14 15  1  0
 15 16  1  0
 16 17  1  0
 16 18  1  0
 18 19  1  0
  5 20  2  0
 20 21  1  0
 21 22  1  0
 22 23  2  0
 22 24  1  0
 24 25  1  0
 25 26  2  0
 26 27  1  0
 27 28  1  0
 28 29  2  0
 28 30  1  0
 30 31  2  0
 31 32  1  0
 32 33  2  0
 33 34  1  0
 34 35  2  0
 21  3  2  0
 35 25  1  0
 19 13  1  0
 35 30  1  0
  1 36  1  0
  1 37  1  0
  2 38  1  0
  2 39  1  0
  6 40  1  0
  7 41  1  0
  7 42  1  0
  8 43  1  0
  8 44  1  0
  9 45  1  0
  9 46  1  0
 14 47  1  0
 14 48  1  0
 15 49  1  0
 15 50  1  0
 16 51  1  0
 17 52  1  0
 18 53  1  0
 18 54  1  0
 19 55  1  0
 19 56  1  0
 24 57  1  0
 26 58  1  0
 27 59  1  0
 31 60  1  0
 32 61  1  0
 33 62  1  0
 34 63  1  0
M  END
>  <Energy>  (845) 
-49.758499792989362

>  <compound_id>  (845) 
4393

>  <target_id>  (845) 
1

>  <reference_id>  (845) 
154

>  <inspiration_ids>  (845) 
[154, 156]

>  <energy_score>  (845) 
-87.62681527374883

>  <distance_score>  (845) 
1.6637946159269263

>  <path>  (845) 
/opt/xchem-fragalysis-2/maxwin/BulkDock/SCRATCH/505735/C4393-P154/C4393-P154.minimised.mol

>  <scratch_subdir>  (845) 
/opt/xchem-fragalysis-2/maxwin/BulkDock/SCRATCH/505735/C4393-P154

>  <fragmenstein_runtime>  (845) 
10.581289291381836

>  <fragmenstein_outcome>  (845) 
too moved

>  <fragmenstein_mode>  (845) 
expansion

>  <fragmenstein_error>  (845) 


$$$$
C4393-P156
     RDKit          3D

 63 66  0  0  0  0  0  0  0  0999 V2000
    2.8151   -4.9169   26.2201 N   0  0  0  0  0  0  0  0  0  0  0  0
    2.8048   -4.2474   27.5071 C   0  0  0  0  0  0  0  0  0  0  0  0
    3.7030   -3.0854   27.5122 C   0  0  0  0  0  0  0  0  0  0  0  0
    3.1447   -1.8634   27.7200 O   0  0  0  0  0  0  0  0  0  0  0  0
    4.2063   -1.0817   28.0545 C   0  0  0  0  0  0  0  0  0  0  0  0
    3.9444   -0.0230   28.8440 N   0  0  0  0  0  0  0  0  0  0  0  0
    3.1469   -0.3098   30.0541 C   0  0  0  0  0  0  0  0  0  0  0  0
    3.9346   -1.1395   31.0943 C   0  0  0  0  0  0  0  0  0  0  0  0
    3.6111   -2.6442   31.1326 C   0  0  0  0  0  0  0  0  0  0  0  0
    2.1644   -3.0057   32.1263 S   0  0  0  0  0  0  0  0  0  0  0  0
    0.9951   -2.4851   31.4554 O   0  0  0  0  0  0  0  0  0  0  0  0
    2.4714   -2.6465   33.4929 O   0  0  0  0  0  0  0  0  0  0  0  0
    2.0333   -4.7179   32.0404 N   0  0  0  0  0  0  0  0  0  0  0  0
    1.4430   -5.2619   30.7799 C   0  0  0  0  0  0  0  0  0  0  0  0
    0.2246   -6.1337   31.0212 C   0  0  0  0  0  0  0  0  0  0  0  0
   -0.6916   -5.5205   32.0691 C   0  0  0  0  0  0  0  0  0  0  0  0
   -1.3562   -4.3767   31.5323 O   0  0  0  0  0  0  0  0  0  0  0  0
    0.0140   -5.1569   33.3730 C   0  0  0  0  0  0  0  0  0  0  0  0
    1.5115   -5.3617   33.2725 C   0  0  0  0  0  0  0  0  0  0  0  0
    5.3814   -1.6341   27.8655 N   0  0  0  0  0  0  0  0  0  0  0  0
    5.0657   -2.9497   27.6353 C   0  0  0  0  0  0  0  0  0  0  0  0
    5.8945   -4.0829   27.9814 C   0  0  0  0  0  0  0  0  0  0  0  0
    6.1535   -4.2682   29.1054 O   0  0  0  0  0  0  0  0  0  0  0  0
    6.2126   -4.9293   26.7264 N   0  0  0  0  0  0  0  0  0  0  0  0
    6.8001   -6.1593   26.6095 C   0  0  0  0  0  0  0  0  0  0  0  0
    6.5329   -6.8949   25.5171 C   0  0  0  0  0  0  0  0  0  0  0  0
    6.8807   -8.2151   25.4157 N   0  0  0  0  0  0  0  0  0  0  0  0
    7.5053   -8.9297   26.4075 C   0  0  0  0  0  0  0  0  0  0  0  0
    7.7658  -10.1214   26.2940 O   0  0  0  0  0  0  0  0  0  0  0  0
    7.8821   -8.1583   27.6180 C   0  0  0  0  0  0  0  0  0  0  0  0
    8.5929   -8.7993   28.6380 C   0  0  0  0  0  0  0  0  0  0  0  0
    9.0685   -8.0686   29.7239 C   0  0  0  0  0  0  0  0  0  0  0  0
    8.8929   -6.6942   29.7528 C   0  0  0  0  0  0  0  0  0  0  0  0
    8.2152   -6.0609   28.7117 C   0  0  0  0  0  0  0  0  0  0  0  0
    7.6111   -6.7832   27.6751 C   0  0  0  0  0  0  0  0  0  0  0  0
    3.0837   -4.2483   25.4961 H   0  0  0  0  0  0  0  0  0  0  0  0
    3.5587   -5.6195   26.2029 H   0  0  0  0  0  0  0  0  0  0  0  0
    1.7945   -3.9485   27.7983 H   0  0  0  0  0  0  0  0  0  0  0  0
    3.1267   -4.9642   28.2700 H   0  0  0  0  0  0  0  0  0  0  0  0
    4.7987    0.4723   29.0863 H   0  0  0  0  0  0  0  0  0  0  0  0
    2.9109    0.6624   30.5031 H   0  0  0  0  0  0  0  0  0  0  0  0
    2.1865   -0.7697   29.7977 H   0  0  0  0  0  0  0  0  0  0  0  0
    3.7442   -0.7119   32.0862 H   0  0  0  0  0  0  0  0  0  0  0  0
    5.0108   -1.0234   30.9146 H   0  0  0  0  0  0  0  0  0  0  0  0
    3.4350   -3.0573   30.1443 H   0  0  0  0  0  0  0  0  0  0  0  0
    4.4403   -3.1819   31.6046 H   0  0  0  0  0  0  0  0  0  0  0  0
    1.1714   -4.4562   30.0917 H   0  0  0  0  0  0  0  0  0  0  0  0
    2.2202   -5.8353   30.2683 H   0  0  0  0  0  0  0  0  0  0  0  0
   -0.3080   -6.2745   30.0749 H   0  0  0  0  0  0  0  0  0  0  0  0
    0.5411   -7.1280   31.3558 H   0  0  0  0  0  0  0  0  0  0  0  0
   -1.4738   -6.2515   32.2943 H   0  0  0  0  0  0  0  0  0  0  0  0
   -0.7305   -3.6188   31.5321 H   0  0  0  0  0  0  0  0  0  0  0  0
   -0.2144   -4.1258   33.6679 H   0  0  0  0  0  0  0  0  0  0  0  0
   -0.3644   -5.7950   34.1812 H   0  0  0  0  0  0  0  0  0  0  0  0
    1.7581   -6.4299   33.2393 H   0  0  0  0  0  0  0  0  0  0  0  0
    2.0222   -4.9819   34.1631 H   0  0  0  0  0  0  0  0  0  0  0  0
    5.9099   -4.4307   25.8957 H   0  0  0  0  0  0  0  0  0  0  0  0
    5.9498   -6.5232   24.6816 H   0  0  0  0  0  0  0  0  0  0  0  0
    6.5481   -8.7472   24.6035 H   0  0  0  0  0  0  0  0  0  0  0  0
    8.7974   -9.8644   28.5643 H   0  0  0  0  0  0  0  0  0  0  0  0
    9.6327   -8.5574   30.5132 H   0  0  0  0  0  0  0  0  0  0  0  0
    9.3214   -6.1027   30.5581 H   0  0  0  0  0  0  0  0  0  0  0  0
    8.2147   -4.9760   28.7182 H   0  0  0  0  0  0  0  0  0  0  0  0
  1  2  1  0
  2  3  1  0
  3  4  1  0
  4  5  1  0
  5  6  1  0
  6  7  1  0
  7  8  1  0
  8  9  1  0
  9 10  1  0
 10 11  2  0
 10 12  2  0
 10 13  1  0
 13 14  1  0
 14 15  1  0
 15 16  1  0
 16 17  1  0
 16 18  1  0
 18 19  1  0
  5 20  2  0
 20 21  1  0
 21 22  1  0
 22 23  2  0
 22 24  1  0
 24 25  1  0
 25 26  2  0
 26 27  1  0
 27 28  1  0
 28 29  2  0
 28 30  1  0
 30 31  2  0
 31 32  1  0
 32 33  2  0
 33 34  1  0
 34 35  2  0
 21  3  2  0
 35 25  1  0
 19 13  1  0
 35 30  1  0
  1 36  1  0
  1 37  1  0
  2 38  1  0
  2 39  1  0
  6 40  1  0
  7 41  1  0
  7 42  1  0
  8 43  1  0
  8 44  1  0
  9 45  1  0
  9 46  1  0
 14 47  1  0
 14 48  1  0
 15 49  1  0
 15 50  1  0
 16 51  1  0
 17 52  1  0
 18 53  1  0
 18 54  1  0
 19 55  1  0
 19 56  1  0
 24 57  1  0
 26 58  1  0
 27 59  1  0
 31 60  1  0
 32 61  1  0
 33 62  1  0
 34 63  1  0
M  END
>  <Energy>  (846) 
-19.074902342916033

>  <compound_id>  (846) 
4393

>  <target_id>  (846) 
1

>  <reference_id>  (846) 
156

>  <inspiration_ids>  (846) 
[154, 156]

>  <energy_score>  (846) 
-56.943217823675354

>  <distance_score>  (846) 
2.009650925571342

>  <path>  (846) 
/opt/xchem-fragalysis-2/maxwin/BulkDock/SCRATCH/505735/C4393-P156/C4393-P156.minimised.mol

>  <scratch_subdir>  (846) 
/opt/xchem-fragalysis-2/maxwin/BulkDock/SCRATCH/505735/C4393-P156

>  <fragmenstein_runtime>  (846) 
10.471739292144775

>  <fragmenstein_outcome>  (846) 
too moved

>  <fragmenstein_mode>  (846) 
expansion

>  <fragmenstein_error>  (846) 


$$$$
C4394-P154
     RDKit          3D

 72 76  0  0  0  0  0  0  0  0999 V2000
    1.3220   -3.6687   25.3831 N   0  0  0  0  0  0  0  0  0  0  0  0
    1.5001   -3.3088   26.7715 C   0  0  0  0  0  0  0  0  0  0  0  0
    2.8455   -2.7001   26.9154 C   0  0  0  0  0  0  0  0  0  0  0  0
    3.1833   -1.4156   27.4535 C   0  0  0  0  0  0  0  0  0  0  0  0
    2.3272   -0.4011   28.1631 C   0  0  0  0  0  0  0  0  0  0  0  0
    1.2107   -0.8983   29.1014 C   0  0  0  0  0  0  0  0  0  0  0  0
    1.5838   -2.0025   30.1057 C   0  0  0  0  0  0  0  0  0  0  0  0
    0.3567   -2.4507   30.9328 C   0  0  0  0  0  0  0  0  0  0  0  0
    0.4166   -3.9009   31.3732 C   0  0  0  0  0  0  0  0  0  0  0  0
    0.3048   -4.9045   30.4178 C   0  0  0  0  0  0  0  0  0  0  0  0
    0.4045   -6.2265   30.8135 C   0  0  0  0  0  0  0  0  0  0  0  0
    0.6396   -6.5050   32.1494 C   0  0  0  0  0  0  0  0  0  0  0  0
    0.7546   -5.4554   33.0442 C   0  0  0  0  0  0  0  0  0  0  0  0
    1.0855   -5.6686   34.3632 N   0  0  0  0  0  0  0  0  0  0  0  0
    1.7004   -6.9155   35.0618 C   0  0  0  0  0  0  0  0  0  0  0  0
    2.0910   -7.9231   34.6098 O   0  0  0  0  0  0  0  0  0  0  0  0
    1.7035   -6.6408   36.5862 C   0  0  0  0  0  0  0  0  0  0  0  0
    0.3161   -6.7687   37.2033 C   0  0  0  0  0  0  0  0  0  0  0  0
    0.2718   -5.6622   38.2400 C   0  0  0  0  0  0  0  0  0  0  0  0
    1.1081   -4.5657   37.6132 C   0  0  0  0  0  0  0  0  0  0  0  0
    2.1787   -5.2825   36.9292 N   0  0  0  0  0  0  0  0  0  0  0  0
    0.5925   -4.1708   32.6863 N   0  0  0  0  0  0  0  0  0  0  0  0
    4.5257   -1.2396   27.1665 C   0  0  0  0  0  0  0  0  0  0  0  0
    5.0082   -2.3874   26.6024 N   0  0  0  0  0  0  0  0  0  0  0  0
    4.0465   -3.3693   26.6624 C   0  0  0  0  0  0  0  0  0  0  0  0
    4.2457   -4.8037   26.4024 C   0  0  0  0  0  0  0  0  0  0  0  0
    3.3841   -5.4551   25.9738 O   0  0  0  0  0  0  0  0  0  0  0  0
    5.6716   -5.1899   26.8187 N   0  0  0  0  0  0  0  0  0  0  0  0
    6.3305   -6.3694   26.7135 C   0  0  0  0  0  0  0  0  0  0  0  0
    6.0892   -7.2048   25.6930 C   0  0  0  0  0  0  0  0  0  0  0  0
    6.7486   -8.3964   25.5552 N   0  0  0  0  0  0  0  0  0  0  0  0
    7.6731   -8.8741   26.4534 C   0  0  0  0  0  0  0  0  0  0  0  0
    8.2656   -9.9338   26.2906 O   0  0  0  0  0  0  0  0  0  0  0  0
    7.9112   -8.0245   27.6551 C   0  0  0  0  0  0  0  0  0  0  0  0
    8.7411   -8.4899   28.6793 C   0  0  0  0  0  0  0  0  0  0  0  0
    8.9218   -7.7257   29.8326 C   0  0  0  0  0  0  0  0  0  0  0  0
    8.2782   -6.4987   29.9652 C   0  0  0  0  0  0  0  0  0  0  0  0
    7.4580   -6.0269   28.9401 C   0  0  0  0  0  0  0  0  0  0  0  0
    7.2689   -6.7801   27.7680 C   0  0  0  0  0  0  0  0  0  0  0  0
    0.5104   -4.2688   25.3038 H   0  0  0  0  0  0  0  0  0  0  0  0
    1.0994   -2.8331   24.8349 H   0  0  0  0  0  0  0  0  0  0  0  0
    0.6955   -2.6384   27.0636 H   0  0  0  0  0  0  0  0  0  0  0  0
    1.4455   -4.1857   27.4191 H   0  0  0  0  0  0  0  0  0  0  0  0
    1.8767    0.2547   27.4074 H   0  0  0  0  0  0  0  0  0  0  0  0
    2.9905    0.2391   28.7608 H   0  0  0  0  0  0  0  0  0  0  0  0
    0.3575   -1.2282   28.5006 H   0  0  0  0  0  0  0  0  0  0  0  0
    0.8391   -0.0312   29.6638 H   0  0  0  0  0  0  0  0  0  0  0  0
    2.3672   -1.6421   30.7833 H   0  0  0  0  0  0  0  0  0  0  0  0
    2.0094   -2.8579   29.5744 H   0  0  0  0  0  0  0  0  0  0  0  0
    0.2594   -1.8033   31.8128 H   0  0  0  0  0  0  0  0  0  0  0  0
   -0.5673   -2.3233   30.3542 H   0  0  0  0  0  0  0  0  0  0  0  0
    0.1434   -4.6571   29.3731 H   0  0  0  0  0  0  0  0  0  0  0  0
    0.3188   -7.0327   30.0936 H   0  0  0  0  0  0  0  0  0  0  0  0
    0.7141   -7.5272   32.4883 H   0  0  0  0  0  0  0  0  0  0  0  0
    0.9320   -4.9411   35.0455 H   0  0  0  0  0  0  0  0  0  0  0  0
    2.3938   -7.3571   37.0475 H   0  0  0  0  0  0  0  0  0  0  0  0
   -0.4784   -6.6222   36.4621 H   0  0  0  0  0  0  0  0  0  0  0  0
    0.1660   -7.7501   37.6638 H   0  0  0  0  0  0  0  0  0  0  0  0
   -0.7494   -5.3384   38.4583 H   0  0  0  0  0  0  0  0  0  0  0  0
    0.7305   -6.0062   39.1751 H   0  0  0  0  0  0  0  0  0  0  0  0
    1.5044   -3.8746   38.3625 H   0  0  0  0  0  0  0  0  0  0  0  0
    0.5091   -3.9901   36.8994 H   0  0  0  0  0  0  0  0  0  0  0  0
    2.6126   -4.7741   36.1628 H   0  0  0  0  0  0  0  0  0  0  0  0
    5.1784   -0.3905   27.3197 H   0  0  0  0  0  0  0  0  0  0  0  0
    5.9464   -2.5117   26.2431 H   0  0  0  0  0  0  0  0  0  0  0  0
    6.1301   -4.3919   27.2269 H   0  0  0  0  0  0  0  0  0  0  0  0
    5.3875   -6.9751   24.8931 H   0  0  0  0  0  0  0  0  0  0  0  0
    6.5251   -8.9644   24.7313 H   0  0  0  0  0  0  0  0  0  0  0  0
    9.2359   -9.4536   28.5796 H   0  0  0  0  0  0  0  0  0  0  0  0
    9.5672   -8.0900   30.6282 H   0  0  0  0  0  0  0  0  0  0  0  0
    8.4143   -5.9100   30.8691 H   0  0  0  0  0  0  0  0  0  0  0  0
    6.9534   -5.0778   29.0924 H   0  0  0  0  0  0  0  0  0  0  0  0
  1  2  1  0
  2  3  1  0
  3  4  1  0
  4  5  1  0
  5  6  1  0
  6  7  1  0
  7  8  1  0
  8  9  1  0
  9 10  2  0
 10 11  1  0
 11 12  2  0
 12 13  1  0
 13 14  1  0
 14 15  1  0
 15 16  2  0
 15 17  1  0
 17 18  1  0
 18 19  1  0
 19 20  1  0
 20 21  1  0
 13 22  2  0
  4 23  2  0
 23 24  1  0
 24 25  1  0
 25 26  1  0
 26 27  2  0
 26 28  1  0
 28 29  1  0
 29 30  2  0
 30 31  1  0
 31 32  1  0
 32 33  2  0
 32 34  1  0
 34 35  2  0
 35 36  1  0
 36 37  2  0
 37 38  1  0
 38 39  2  0
 25  3  2  0
 39 29  1  0
 22  9  1  0
 39 34  1  0
 21 17  1  0
  1 40  1  0
  1 41  1  0
  2 42  1  0
  2 43  1  0
  5 44  1  0
  5 45  1  0
  6 46  1  0
  6 47  1  0
  7 48  1  0
  7 49  1  0
  8 50  1  0
  8 51  1  0
 10 52  1  0
 11 53  1  0
 12 54  1  0
 14 55  1  0
 17 56  1  0
 18 57  1  0
 18 58  1  0
 19 59  1  0
 19 60  1  0
 20 61  1  0
 20 62  1  0
 21 63  1  0
 23 64  1  0
 24 65  1  0
 28 66  1  0
 30 67  1  0
 31 68  1  0
 35 69  1  0
 36 70  1  0
 37 71  1  0
 38 72  1  0
M  END
>  <Energy>  (847) 
79.371609707430082

>  <compound_id>  (847) 
4394

>  <target_id>  (847) 
1

>  <reference_id>  (847) 
154

>  <inspiration_ids>  (847) 
[154, 157]

>  <energy_score>  (847) 
-48.696240784490556

>  <distance_score>  (847) 
1.6225889940275537

>  <path>  (847) 
/opt/xchem-fragalysis-2/maxwin/BulkDock/SCRATCH/505735/C4394-P154/C4394-P154.minimised.mol

>  <scratch_subdir>  (847) 
/opt/xchem-fragalysis-2/maxwin/BulkDock/SCRATCH/505735/C4394-P154

>  <fragmenstein_runtime>  (847) 
19.841468811035156

>  <fragmenstein_outcome>  (847) 
too moved

>  <fragmenstein_mode>  (847) 
expansion

>  <fragmenstein_error>  (847) 


$$$$
C4394-P157
     RDKit          3D

 72 76  0  0  0  0  0  0  0  0999 V2000
    2.9791   -4.7580   26.4094 N   0  0  0  0  0  0  0  0  0  0  0  0
    2.8439   -3.9863   27.6399 C   0  0  0  0  0  0  0  0  0  0  0  0
    3.6604   -2.7477   27.4938 C   0  0  0  0  0  0  0  0  0  0  0  0
    3.2223   -1.3776   27.6560 C   0  0  0  0  0  0  0  0  0  0  0  0
    1.9275   -0.7530   28.1135 C   0  0  0  0  0  0  0  0  0  0  0  0
    0.9157   -1.5478   28.9372 C   0  0  0  0  0  0  0  0  0  0  0  0
    1.4294   -2.0543   30.2914 C   0  0  0  0  0  0  0  0  0  0  0  0
    0.2740   -2.5679   31.1685 C   0  0  0  0  0  0  0  0  0  0  0  0
    0.3540   -4.0254   31.5532 C   0  0  0  0  0  0  0  0  0  0  0  0
    0.1753   -5.0337   30.6219 C   0  0  0  0  0  0  0  0  0  0  0  0
    0.1368   -6.3493   31.0672 C   0  0  0  0  0  0  0  0  0  0  0  0
    0.2894   -6.6162   32.4254 C   0  0  0  0  0  0  0  0  0  0  0  0
    0.5218   -5.5576   33.2874 C   0  0  0  0  0  0  0  0  0  0  0  0
    0.7885   -5.7759   34.6242 N   0  0  0  0  0  0  0  0  0  0  0  0
    1.1190   -4.7720   35.7641 C   0  0  0  0  0  0  0  0  0  0  0  0
    1.1400   -3.6023   35.7617 O   0  0  0  0  0  0  0  0  0  0  0  0
    1.4133   -5.5972   37.0274 C   0  0  0  0  0  0  0  0  0  0  0  0
    0.2521   -5.5582   38.0041 C   0  0  0  0  0  0  0  0  0  0  0  0
    0.4636   -6.8236   38.7998 C   0  0  0  0  0  0  0  0  0  0  0  0
    0.8995   -7.8115   37.7378 C   0  0  0  0  0  0  0  0  0  0  0  0
    1.6567   -7.0458   36.7283 N   0  0  0  0  0  0  0  0  0  0  0  0
    0.5400   -4.2913   32.8591 N   0  0  0  0  0  0  0  0  0  0  0  0
    4.2960   -0.5912   27.2747 C   0  0  0  0  0  0  0  0  0  0  0  0
    5.3760   -1.3870   27.0635 N   0  0  0  0  0  0  0  0  0  0  0  0
    5.0470   -2.6972   27.2911 C   0  0  0  0  0  0  0  0  0  0  0  0
    6.1081   -3.6991   27.3635 C   0  0  0  0  0  0  0  0  0  0  0  0
    7.1215   -3.4051   27.8620 O   0  0  0  0  0  0  0  0  0  0  0  0
    5.6388   -5.0414   26.7716 N   0  0  0  0  0  0  0  0  0  0  0  0
    6.2452   -6.2613   26.7533 C   0  0  0  0  0  0  0  0  0  0  0  0
    6.0122   -7.0791   25.7162 C   0  0  0  0  0  0  0  0  0  0  0  0
    6.6575   -8.2752   25.5628 N   0  0  0  0  0  0  0  0  0  0  0  0
    7.6281   -8.7446   26.4117 C   0  0  0  0  0  0  0  0  0  0  0  0
    8.2578   -9.7724   26.1874 O   0  0  0  0  0  0  0  0  0  0  0  0
    7.8461   -7.9401   27.6442 C   0  0  0  0  0  0  0  0  0  0  0  0
    8.7073   -8.4306   28.6323 C   0  0  0  0  0  0  0  0  0  0  0  0
    8.8146   -7.7700   29.8541 C   0  0  0  0  0  0  0  0  0  0  0  0
    8.0544   -6.6310   30.0905 C   0  0  0  0  0  0  0  0  0  0  0  0
    7.2130   -6.1325   29.0934 C   0  0  0  0  0  0  0  0  0  0  0  0
    7.1277   -6.7463   27.8342 C   0  0  0  0  0  0  0  0  0  0  0  0
    2.3236   -5.5325   26.3891 H   0  0  0  0  0  0  0  0  0  0  0  0
    2.9213   -4.1584   25.5909 H   0  0  0  0  0  0  0  0  0  0  0  0
    1.7941   -3.7863   27.8216 H   0  0  0  0  0  0  0  0  0  0  0  0
    3.2099   -4.5791   28.4852 H   0  0  0  0  0  0  0  0  0  0  0  0
    1.4127   -0.3558   27.2333 H   0  0  0  0  0  0  0  0  0  0  0  0
    2.1906    0.1349   28.7074 H   0  0  0  0  0  0  0  0  0  0  0  0
    0.4854   -2.3677   28.3579 H   0  0  0  0  0  0  0  0  0  0  0  0
    0.0734   -0.8680   29.1290 H   0  0  0  0  0  0  0  0  0  0  0  0
    1.9108   -1.2174   30.8133 H   0  0  0  0  0  0  0  0  0  0  0  0
    2.1996   -2.8196   30.1562 H   0  0  0  0  0  0  0  0  0  0  0  0
    0.2571   -1.9723   32.0911 H   0  0  0  0  0  0  0  0  0  0  0  0
   -0.7002   -2.3976   30.6930 H   0  0  0  0  0  0  0  0  0  0  0  0
    0.0172   -4.7959   29.5753 H   0  0  0  0  0  0  0  0  0  0  0  0
   -0.0369   -7.1627   30.3708 H   0  0  0  0  0  0  0  0  0  0  0  0
    0.2284   -7.6301   32.7987 H   0  0  0  0  0  0  0  0  0  0  0  0
    0.7857   -6.7227   34.9955 H   0  0  0  0  0  0  0  0  0  0  0  0
    2.3208   -5.1897   37.4909 H   0  0  0  0  0  0  0  0  0  0  0  0
    0.2718   -4.6666   38.6385 H   0  0  0  0  0  0  0  0  0  0  0  0
   -0.7141   -5.5847   37.4847 H   0  0  0  0  0  0  0  0  0  0  0  0
    1.2645   -6.6773   39.5349 H   0  0  0  0  0  0  0  0  0  0  0  0
   -0.4345   -7.1407   39.3342 H   0  0  0  0  0  0  0  0  0  0  0  0
    0.0272   -8.2519   37.2463 H   0  0  0  0  0  0  0  0  0  0  0  0
    1.5052   -8.6150   38.1641 H   0  0  0  0  0  0  0  0  0  0  0  0
    2.6532   -7.2150   36.8821 H   0  0  0  0  0  0  0  0  0  0  0  0
    4.3898    0.4843   27.2027 H   0  0  0  0  0  0  0  0  0  0  0  0
    6.3198   -1.0707   26.8779 H   0  0  0  0  0  0  0  0  0  0  0  0
    4.7230   -4.9217   26.3421 H   0  0  0  0  0  0  0  0  0  0  0  0
    5.3562   -6.8137   24.8930 H   0  0  0  0  0  0  0  0  0  0  0  0
    6.4657   -8.8077   24.7080 H   0  0  0  0  0  0  0  0  0  0  0  0
    9.2785   -9.3381   28.4504 H   0  0  0  0  0  0  0  0  0  0  0  0
    9.4804   -8.1511   30.6237 H   0  0  0  0  0  0  0  0  0  0  0  0
    8.1189   -6.1196   31.0477 H   0  0  0  0  0  0  0  0  0  0  0  0
    6.6214   -5.2565   29.3364 H   0  0  0  0  0  0  0  0  0  0  0  0
  1  2  1  0
  2  3  1  0
  3  4  1  0
  4  5  1  0
  5  6  1  0
  6  7  1  0
  7  8  1  0
  8  9  1  0
  9 10  2  0
 10 11  1  0
 11 12  2  0
 12 13  1  0
 13 14  1  0
 14 15  1  0
 15 16  2  0
 15 17  1  0
 17 18  1  0
 18 19  1  0
 19 20  1  0
 20 21  1  0
 13 22  2  0
  4 23  2  0
 23 24  1  0
 24 25  1  0
 25 26  1  0
 26 27  2  0
 26 28  1  0
 28 29  1  0
 29 30  2  0
 30 31  1  0
 31 32  1  0
 32 33  2  0
 32 34  1  0
 34 35  2  0
 35 36  1  0
 36 37  2  0
 37 38  1  0
 38 39  2  0
 25  3  2  0
 39 29  1  0
 22  9  1  0
 39 34  1  0
 21 17  1  0
  1 40  1  0
  1 41  1  0
  2 42  1  0
  2 43  1  0
  5 44  1  0
  5 45  1  0
  6 46  1  0
  6 47  1  0
  7 48  1  0
  7 49  1  0
  8 50  1  0
  8 51  1  0
 10 52  1  0
 11 53  1  0
 12 54  1  0
 14 55  1  0
 17 56  1  0
 18 57  1  0
 18 58  1  0
 19 59  1  0
 19 60  1  0
 20 61  1  0
 20 62  1  0
 21 63  1  0
 23 64  1  0
 24 65  1  0
 28 66  1  0
 30 67  1  0
 31 68  1  0
 35 69  1  0
 36 70  1  0
 37 71  1  0
 38 72  1  0
M  END
>  <Energy>  (848) 
71.766698235712681

>  <compound_id>  (848) 
4394

>  <target_id>  (848) 
1

>  <reference_id>  (848) 
157

>  <inspiration_ids>  (848) 
[154, 157]

>  <energy_score>  (848) 
-56.30115225620807

>  <distance_score>  (848) 
1.9374757966932936

>  <path>  (848) 
/opt/xchem-fragalysis-2/maxwin/BulkDock/SCRATCH/505735/C4394-P157/C4394-P157.minimised.mol

>  <scratch_subdir>  (848) 
/opt/xchem-fragalysis-2/maxwin/BulkDock/SCRATCH/505735/C4394-P157

>  <fragmenstein_runtime>  (848) 
12.680477619171143

>  <fragmenstein_outcome>  (848) 
too moved

>  <fragmenstein_mode>  (848) 
expansion

>  <fragmenstein_error>  (848) 


$$$$
C4395-P154
     RDKit          3D

 63 66  0  0  0  0  0  0  0  0999 V2000
    0.0180    4.1937   21.9813 C   0  0  0  0  0  0  0  0  0  0  0  0
   -0.9276    4.6530   22.9524 O   0  0  0  0  0  0  0  0  0  0  0  0
   -1.6237    3.7064   23.6406 C   0  0  0  0  0  0  0  0  0  0  0  0
   -1.6089    2.4964   23.4225 O   0  0  0  0  0  0  0  0  0  0  0  0
   -2.4032    4.3631   24.7736 C   0  0  0  0  0  0  0  0  0  0  0  0
   -2.1885    3.5946   25.9740 N   0  0  0  0  0  0  0  0  0  0  0  0
   -1.0723    3.6772   27.0252 C   0  0  0  0  0  0  0  0  0  0  0  0
   -0.1899    4.4291   27.1315 O   0  0  0  0  0  0  0  0  0  0  0  0
   -1.1784    2.5255   27.9356 C   0  0  0  0  0  0  0  0  0  0  0  0
   -0.2431    2.0926   28.9047 C   0  0  0  0  0  0  0  0  0  0  0  0
   -0.6936    0.8564   29.3061 C   0  0  0  0  0  0  0  0  0  0  0  0
   -0.1836   -0.2114   30.1929 C   0  0  0  0  0  0  0  0  0  0  0  0
    1.0543   -0.9106   29.6258 C   0  0  0  0  0  0  0  0  0  0  0  0
    2.1499    0.0995   29.1820 C   0  0  0  0  0  0  0  0  0  0  0  0
    3.4774   -0.4601   29.0023 N   0  0  0  0  0  0  0  0  0  0  0  0
    3.6644   -1.4648   28.1353 C   0  0  0  0  0  0  0  0  0  0  0  0
    4.5159   -2.4455   28.2800 N   0  0  0  0  0  0  0  0  0  0  0  0
    3.9457   -3.4642   27.5503 C   0  0  0  0  0  0  0  0  0  0  0  0
    4.3586   -4.8397   27.7424 C   0  0  0  0  0  0  0  0  0  0  0  0
    3.9702   -5.4363   28.6682 O   0  0  0  0  0  0  0  0  0  0  0  0
    5.3767   -5.2343   26.6548 N   0  0  0  0  0  0  0  0  0  0  0  0
    6.1551   -6.3393   26.5353 C   0  0  0  0  0  0  0  0  0  0  0  0
    6.2388   -7.0053   25.3789 C   0  0  0  0  0  0  0  0  0  0  0  0
    6.9122   -8.1943   25.2808 N   0  0  0  0  0  0  0  0  0  0  0  0
    7.5791   -8.8041   26.3170 C   0  0  0  0  0  0  0  0  0  0  0  0
    8.1232   -9.8954   26.1966 O   0  0  0  0  0  0  0  0  0  0  0  0
    7.6230   -8.0458   27.5942 C   0  0  0  0  0  0  0  0  0  0  0  0
    8.4076   -8.5188   28.6525 C   0  0  0  0  0  0  0  0  0  0  0  0
    8.5250   -7.7707   29.8235 C   0  0  0  0  0  0  0  0  0  0  0  0
    7.8637   -6.5540   29.9371 C   0  0  0  0  0  0  0  0  0  0  0  0
    7.0801   -6.0860   28.8811 C   0  0  0  0  0  0  0  0  0  0  0  0
    6.9242   -6.8335   27.6999 C   0  0  0  0  0  0  0  0  0  0  0  0
    2.8747   -2.9750   26.8447 C   0  0  0  0  0  0  0  0  0  0  0  0
    1.8352   -3.5351   25.9836 C   0  0  0  0  0  0  0  0  0  0  0  0
    1.9908   -3.0315   24.6369 N   0  0  0  0  0  0  0  0  0  0  0  0
    2.7333   -1.6543   27.1655 O   0  0  0  0  0  0  0  0  0  0  0  0
   -1.8691    0.6031   28.6965 O   0  0  0  0  0  0  0  0  0  0  0  0
   -2.2011    1.6595   27.8715 N   0  0  0  0  0  0  0  0  0  0  0  0
   -0.2115    3.1982   21.6021 H   0  0  0  0  0  0  0  0  0  0  0  0
    0.0097    4.8944   21.1421 H   0  0  0  0  0  0  0  0  0  0  0  0
    1.0142    4.1972   22.4319 H   0  0  0  0  0  0  0  0  0  0  0  0
   -3.4664    4.3750   24.5267 H   0  0  0  0  0  0  0  0  0  0  0  0
   -2.0310    5.3760   24.9492 H   0  0  0  0  0  0  0  0  0  0  0  0
   -2.7462    2.7605   26.1367 H   0  0  0  0  0  0  0  0  0  0  0  0
    0.6691    2.5996   29.1850 H   0  0  0  0  0  0  0  0  0  0  0  0
   -0.9629   -0.9587   30.3842 H   0  0  0  0  0  0  0  0  0  0  0  0
    0.0666    0.2315   31.1648 H   0  0  0  0  0  0  0  0  0  0  0  0
    0.7571   -1.5290   28.7709 H   0  0  0  0  0  0  0  0  0  0  0  0
    1.4598   -1.5906   30.3847 H   0  0  0  0  0  0  0  0  0  0  0  0
    1.8577    0.5850   28.2440 H   0  0  0  0  0  0  0  0  0  0  0  0
    2.2424    0.8855   29.9405 H   0  0  0  0  0  0  0  0  0  0  0  0
    4.0202   -0.5622   29.8529 H   0  0  0  0  0  0  0  0  0  0  0  0
    5.4184   -4.5044   25.9484 H   0  0  0  0  0  0  0  0  0  0  0  0
    5.7010   -6.7071   24.4843 H   0  0  0  0  0  0  0  0  0  0  0  0
    6.7676   -8.7405   24.4272 H   0  0  0  0  0  0  0  0  0  0  0  0
    8.9432   -9.4596   28.5498 H   0  0  0  0  0  0  0  0  0  0  0  0
    9.1491   -8.1256   30.6389 H   0  0  0  0  0  0  0  0  0  0  0  0
    7.9675   -5.9579   30.8400 H   0  0  0  0  0  0  0  0  0  0  0  0
    6.6209   -5.1084   28.9951 H   0  0  0  0  0  0  0  0  0  0  0  0
    0.8523   -3.2769   26.3880 H   0  0  0  0  0  0  0  0  0  0  0  0
    1.9183   -4.6217   25.9642 H   0  0  0  0  0  0  0  0  0  0  0  0
    1.0572   -2.8877   24.2293 H   0  0  0  0  0  0  0  0  0  0  0  0
    2.3702   -2.0818   24.6604 H   0  0  0  0  0  0  0  0  0  0  0  0
  1  2  1  0
  2  3  1  0
  3  4  2  0
  3  5  1  0
  5  6  1  0
  6  7  1  0
  7  8  2  0
  7  9  1  0
  9 10  1  0
 10 11  2  0
 11 12  1  0
 12 13  1  0
 13 14  1  0
 14 15  1  0
 15 16  1  0
 16 17  2  0
 17 18  1  0
 18 19  1  0
 19 20  2  0
 19 21  1  0
 21 22  1  0
 22 23  2  0
 23 24  1  0
 24 25  1  0
 25 26  2  0
 25 27  1  0
 27 28  2  0
 28 29  1  0
 29 30  2  0
 30 31  1  0
 31 32  2  0
 18 33  2  0
 33 34  1  0
 34 35  1  0
 33 36  1  0
 11 37  1  0
 37 38  1  0
 38  9  2  0
 36 16  1  0
 32 22  1  0
 32 27  1  0
  1 39  1  0
  1 40  1  0
  1 41  1  0
  5 42  1  0
  5 43  1  0
  6 44  1  0
 10 45  1  0
 12 46  1  0
 12 47  1  0
 13 48  1  0
 13 49  1  0
 14 50  1  0
 14 51  1  0
 15 52  1  0
 21 53  1  0
 23 54  1  0
 24 55  1  0
 28 56  1  0
 29 57  1  0
 30 58  1  0
 31 59  1  0
 34 60  1  0
 34 61  1  0
 35 62  1  0
 35 63  1  0
M  END
>  <Energy>  (849) 
72.455593916214397

>  <compound_id>  (849) 
4395

>  <target_id>  (849) 
1

>  <reference_id>  (849) 
154

>  <inspiration_ids>  (849) 
[154, 162]

>  <energy_score>  (849) 
-57.19168232885551

>  <distance_score>  (849) 
1.4958108557812508

>  <path>  (849) 
/opt/xchem-fragalysis-2/maxwin/BulkDock/SCRATCH/505735/C4395-P154/C4395-P154.minimised.mol

>  <scratch_subdir>  (849) 
/opt/xchem-fragalysis-2/maxwin/BulkDock/SCRATCH/505735/C4395-P154

>  <fragmenstein_runtime>  (849) 
13.527328491210938

>  <fragmenstein_outcome>  (849) 
too moved

>  <fragmenstein_mode>  (849) 
expansion

>  <fragmenstein_error>  (849) 


$$$$
C4395-P162
     RDKit          3D

 63 66  0  0  0  0  0  0  0  0999 V2000
   -0.0375    4.5262   22.0755 C   0  0  0  0  0  0  0  0  0  0  0  0
   -1.0964    4.8048   22.9999 O   0  0  0  0  0  0  0  0  0  0  0  0
   -1.7271    3.7375   23.5581 C   0  0  0  0  0  0  0  0  0  0  0  0
   -1.5675    2.5587   23.2405 O   0  0  0  0  0  0  0  0  0  0  0  0
   -2.6459    4.1890   24.6858 C   0  0  0  0  0  0  0  0  0  0  0  0
   -2.4563    3.2296   25.7425 N   0  0  0  0  0  0  0  0  0  0  0  0
   -1.3524    3.1168   26.7977 C   0  0  0  0  0  0  0  0  0  0  0  0
   -0.4590    3.8237   27.0332 O   0  0  0  0  0  0  0  0  0  0  0  0
   -1.4694    1.8376   27.5140 C   0  0  0  0  0  0  0  0  0  0  0  0
   -0.6832    1.4235   28.6154 C   0  0  0  0  0  0  0  0  0  0  0  0
   -1.1367    0.1668   28.9138 C   0  0  0  0  0  0  0  0  0  0  0  0
   -0.8033   -0.8218   29.9557 C   0  0  0  0  0  0  0  0  0  0  0  0
    0.5211   -1.5353   29.6943 C   0  0  0  0  0  0  0  0  0  0  0  0
    1.7878   -0.6344   29.8212 C   0  0  0  0  0  0  0  0  0  0  0  0
    2.4633   -0.3406   28.5347 N   0  0  0  0  0  0  0  0  0  0  0  0
    3.2381   -1.3526   28.0778 C   0  0  0  0  0  0  0  0  0  0  0  0
    4.5057   -1.6626   28.2736 N   0  0  0  0  0  0  0  0  0  0  0  0
    4.5727   -3.0028   27.9381 C   0  0  0  0  0  0  0  0  0  0  0  0
    5.5986   -3.9927   28.2452 C   0  0  0  0  0  0  0  0  0  0  0  0
    5.9868   -4.1223   29.3422 O   0  0  0  0  0  0  0  0  0  0  0  0
    5.9252   -4.8080   26.9533 N   0  0  0  0  0  0  0  0  0  0  0  0
    6.6839   -5.9494   26.7809 C   0  0  0  0  0  0  0  0  0  0  0  0
    6.5409   -6.5961   25.6038 C   0  0  0  0  0  0  0  0  0  0  0  0
    6.8971   -7.9095   25.4151 N   0  0  0  0  0  0  0  0  0  0  0  0
    7.3680   -8.7237   26.4190 C   0  0  0  0  0  0  0  0  0  0  0  0
    7.5876   -9.9181   26.2501 O   0  0  0  0  0  0  0  0  0  0  0  0
    7.6193   -8.0595   27.7247 C   0  0  0  0  0  0  0  0  0  0  0  0
    8.1510   -8.8165   28.7773 C   0  0  0  0  0  0  0  0  0  0  0  0
    8.5288   -8.1902   29.9597 C   0  0  0  0  0  0  0  0  0  0  0  0
    8.4436   -6.8075   30.0552 C   0  0  0  0  0  0  0  0  0  0  0  0
    7.9212   -6.0611   28.9951 C   0  0  0  0  0  0  0  0  0  0  0  0
    7.3989   -6.6746   27.8541 C   0  0  0  0  0  0  0  0  0  0  0  0
    3.3085   -3.4304   27.6022 C   0  0  0  0  0  0  0  0  0  0  0  0
    2.6781   -4.7532   27.5338 C   0  0  0  0  0  0  0  0  0  0  0  0
    2.6575   -5.2736   26.1793 N   0  0  0  0  0  0  0  0  0  0  0  0
    2.4944   -2.3605   27.5695 O   0  0  0  0  0  0  0  0  0  0  0  0
   -2.1099   -0.1789   28.0307 O   0  0  0  0  0  0  0  0  0  0  0  0
   -2.3364    0.8728   27.1590 N   0  0  0  0  0  0  0  0  0  0  0  0
   -0.3473    4.8565   21.0807 H   0  0  0  0  0  0  0  0  0  0  0  0
    0.8357    5.1113   22.3775 H   0  0  0  0  0  0  0  0  0  0  0  0
    0.2480    3.4715   22.0426 H   0  0  0  0  0  0  0  0  0  0  0  0
   -3.6863    4.1937   24.3575 H   0  0  0  0  0  0  0  0  0  0  0  0
   -2.3382    5.1695   25.0579 H   0  0  0  0  0  0  0  0  0  0  0  0
   -3.0313    2.3878   25.7609 H   0  0  0  0  0  0  0  0  0  0  0  0
    0.0930    1.9915   29.1079 H   0  0  0  0  0  0  0  0  0  0  0  0
   -0.7720   -0.3271   30.9339 H   0  0  0  0  0  0  0  0  0  0  0  0
   -1.6016   -1.5723   30.0167 H   0  0  0  0  0  0  0  0  0  0  0  0
    0.4651   -2.0297   28.7199 H   0  0  0  0  0  0  0  0  0  0  0  0
    0.6134   -2.3331   30.4427 H   0  0  0  0  0  0  0  0  0  0  0  0
    1.5338    0.3192   30.2964 H   0  0  0  0  0  0  0  0  0  0  0  0
    2.5026   -1.1200   30.4994 H   0  0  0  0  0  0  0  0  0  0  0  0
    1.7391   -0.1355   27.8470 H   0  0  0  0  0  0  0  0  0  0  0  0
    5.4767   -4.3730   26.1553 H   0  0  0  0  0  0  0  0  0  0  0  0
    6.0300   -6.1572   24.7527 H   0  0  0  0  0  0  0  0  0  0  0  0
    6.6563   -8.3679   24.5306 H   0  0  0  0  0  0  0  0  0  0  0  0
    8.2934   -9.8889   28.6687 H   0  0  0  0  0  0  0  0  0  0  0  0
    8.9425   -8.7763   30.7771 H   0  0  0  0  0  0  0  0  0  0  0  0
    8.8054   -6.2986   30.9457 H   0  0  0  0  0  0  0  0  0  0  0  0
    7.9669   -4.9805   29.0808 H   0  0  0  0  0  0  0  0  0  0  0  0
    1.6626   -4.7049   27.9380 H   0  0  0  0  0  0  0  0  0  0  0  0
    3.2214   -5.4567   28.1759 H   0  0  0  0  0  0  0  0  0  0  0  0
    2.6149   -6.2928   26.2421 H   0  0  0  0  0  0  0  0  0  0  0  0
    3.5652   -5.1151   25.7398 H   0  0  0  0  0  0  0  0  0  0  0  0
  1  2  1  0
  2  3  1  0
  3  4  2  0
  3  5  1  0
  5  6  1  0
  6  7  1  0
  7  8  2  0
  7  9  1  0
  9 10  1  0
 10 11  2  0
 11 12  1  0
 12 13  1  0
 13 14  1  0
 14 15  1  0
 15 16  1  0
 16 17  2  0
 17 18  1  0
 18 19  1  0
 19 20  2  0
 19 21  1  0
 21 22  1  0
 22 23  2  0
 23 24  1  0
 24 25  1  0
 25 26  2  0
 25 27  1  0
 27 28  2  0
 28 29  1  0
 29 30  2  0
 30 31  1  0
 31 32  2  0
 18 33  2  0
 33 34  1  0
 34 35  1  0
 33 36  1  0
 11 37  1  0
 37 38  1  0
 38  9  2  0
 36 16  1  0
 32 22  1  0
 32 27  1  0
  1 39  1  0
  1 40  1  0
  1 41  1  0
  5 42  1  0
  5 43  1  0
  6 44  1  0
 10 45  1  0
 12 46  1  0
 12 47  1  0
 13 48  1  0
 13 49  1  0
 14 50  1  0
 14 51  1  0
 15 52  1  0
 21 53  1  0
 23 54  1  0
 24 55  1  0
 28 56  1  0
 29 57  1  0
 30 58  1  0
 31 59  1  0
 34 60  1  0
 34 61  1  0
 35 62  1  0
 35 63  1  0
M  END
>  <Energy>  (850) 
86.212994708537039

>  <compound_id>  (850) 
4395

>  <target_id>  (850) 
1

>  <reference_id>  (850) 
162

>  <inspiration_ids>  (850) 
[154, 162]

>  <energy_score>  (850) 
-43.434281536531955

>  <distance_score>  (850) 
1.6404606684890823

>  <path>  (850) 
/opt/xchem-fragalysis-2/maxwin/BulkDock/SCRATCH/505735/C4395-P162/C4395-P162.minimised.mol

>  <scratch_subdir>  (850) 
/opt/xchem-fragalysis-2/maxwin/BulkDock/SCRATCH/505735/C4395-P162

>  <fragmenstein_runtime>  (850) 
14.662328720092773

>  <fragmenstein_outcome>  (850) 
too moved

>  <fragmenstein_mode>  (850) 
expansion

>  <fragmenstein_error>  (850) 


$$$$
C4396-P154
     RDKit          3D

 67 71  0  0  0  0  0  0  0  0999 V2000
    0.9203   -5.4523   32.1407 C   0  0  0  0  0  0  0  0  0  0  0  0
    1.6383   -4.5170   33.1149 C   0  0  0  0  0  0  0  0  0  0  0  0
    3.1475   -4.5405   32.8915 C   0  0  0  0  0  0  0  0  0  0  0  0
    1.1061   -3.1307   32.9994 C   0  0  0  0  0  0  0  0  0  0  0  0
    1.4511   -2.1445   32.2013 N   0  0  0  0  0  0  0  0  0  0  0  0
    0.5187   -1.1756   32.5063 C   0  0  0  0  0  0  0  0  0  0  0  0
    0.3932    0.1649   31.8374 C   0  0  0  0  0  0  0  0  0  0  0  0
    1.3523    1.2316   32.3321 C   0  0  0  0  0  0  0  0  0  0  0  0
    1.3078    2.3008   31.2450 C   0  0  0  0  0  0  0  0  0  0  0  0
    0.6007    1.6626   30.0528 C   0  0  0  0  0  0  0  0  0  0  0  0
    0.4555    0.2322   30.3569 N   0  0  0  0  0  0  0  0  0  0  0  0
    1.4920   -0.5660   29.6774 C   0  0  0  0  0  0  0  0  0  0  0  0
    2.9707   -0.0470   29.6236 C   0  0  0  0  0  0  0  0  0  0  0  0
    4.0058   -1.0222   29.2910 N   0  0  0  0  0  0  0  0  0  0  0  0
    3.9248   -1.8515   28.2414 C   0  0  0  0  0  0  0  0  0  0  0  0
    4.6400   -2.9365   28.0273 N   0  0  0  0  0  0  0  0  0  0  0  0
    3.8887   -3.6257   27.0876 C   0  0  0  0  0  0  0  0  0  0  0  0
    4.1669   -4.9675   26.6009 C   0  0  0  0  0  0  0  0  0  0  0  0
    3.3613   -5.6048   26.0573 O   0  0  0  0  0  0  0  0  0  0  0  0
    5.6183   -5.2937   26.9513 N   0  0  0  0  0  0  0  0  0  0  0  0
    6.3235   -6.4408   26.8022 C   0  0  0  0  0  0  0  0  0  0  0  0
    6.1064   -7.2454   25.7516 C   0  0  0  0  0  0  0  0  0  0  0  0
    6.7900   -8.4179   25.5772 N   0  0  0  0  0  0  0  0  0  0  0  0
    7.7179   -8.9055   26.4665 C   0  0  0  0  0  0  0  0  0  0  0  0
    8.3157   -9.9588   26.2820 O   0  0  0  0  0  0  0  0  0  0  0  0
    7.9538   -8.0764   27.6837 C   0  0  0  0  0  0  0  0  0  0  0  0
    8.8166   -8.5400   28.6810 C   0  0  0  0  0  0  0  0  0  0  0  0
    9.0099   -7.7902   29.8419 C   0  0  0  0  0  0  0  0  0  0  0  0
    8.3462   -6.5788   30.0092 C   0  0  0  0  0  0  0  0  0  0  0  0
    7.4916   -6.1092   29.0123 C   0  0  0  0  0  0  0  0  0  0  0  0
    7.2872   -6.8492   27.8338 C   0  0  0  0  0  0  0  0  0  0  0  0
    2.8048   -2.8686   26.7411 C   0  0  0  0  0  0  0  0  0  0  0  0
    1.6397   -3.0920   25.8990 C   0  0  0  0  0  0  0  0  0  0  0  0
    1.9936   -2.9057   24.5117 N   0  0  0  0  0  0  0  0  0  0  0  0
    2.8775   -1.6835   27.3980 O   0  0  0  0  0  0  0  0  0  0  0  0
   -0.2993   -1.5096   33.5186 N   0  0  0  0  0  0  0  0  0  0  0  0
    0.0804   -2.8095   33.8370 O   0  0  0  0  0  0  0  0  0  0  0  0
   -0.1608   -5.4527   32.3209 H   0  0  0  0  0  0  0  0  0  0  0  0
    1.0826   -5.1482   31.1002 H   0  0  0  0  0  0  0  0  0  0  0  0
    1.2798   -6.4799   32.2539 H   0  0  0  0  0  0  0  0  0  0  0  0
    1.4473   -4.8767   34.1343 H   0  0  0  0  0  0  0  0  0  0  0  0
    3.6570   -3.8399   33.5628 H   0  0  0  0  0  0  0  0  0  0  0  0
    3.5460   -5.5391   33.0917 H   0  0  0  0  0  0  0  0  0  0  0  0
    3.4093   -4.2667   31.8630 H   0  0  0  0  0  0  0  0  0  0  0  0
   -0.6210    0.5191   32.0834 H   0  0  0  0  0  0  0  0  0  0  0  0
    2.3688    0.8471   32.4650 H   0  0  0  0  0  0  0  0  0  0  0  0
    1.0407    1.6411   33.2998 H   0  0  0  0  0  0  0  0  0  0  0  0
    0.7546    3.1815   31.5898 H   0  0  0  0  0  0  0  0  0  0  0  0
    2.3215    2.6246   30.9870 H   0  0  0  0  0  0  0  0  0  0  0  0
   -0.3964    2.0835   29.9376 H   0  0  0  0  0  0  0  0  0  0  0  0
    1.1047    1.8769   29.1041 H   0  0  0  0  0  0  0  0  0  0  0  0
    1.4625   -1.6142   29.9816 H   0  0  0  0  0  0  0  0  0  0  0  0
    1.1475   -0.6108   28.6355 H   0  0  0  0  0  0  0  0  0  0  0  0
    3.2555    0.3548   30.5967 H   0  0  0  0  0  0  0  0  0  0  0  0
    3.0432    0.7832   28.9114 H   0  0  0  0  0  0  0  0  0  0  0  0
    4.5543   -1.3616   30.0715 H   0  0  0  0  0  0  0  0  0  0  0  0
    6.0117   -4.5365   27.5024 H   0  0  0  0  0  0  0  0  0  0  0  0
    5.3969   -7.0063   24.9613 H   0  0  0  0  0  0  0  0  0  0  0  0
    6.5741   -8.9685   24.7406 H   0  0  0  0  0  0  0  0  0  0  0  0
    9.3330   -9.4887   28.5523 H   0  0  0  0  0  0  0  0  0  0  0  0
    9.6860   -8.1511   30.6130 H   0  0  0  0  0  0  0  0  0  0  0  0
    8.4983   -5.9962   30.9143 H   0  0  0  0  0  0  0  0  0  0  0  0
    6.9838   -5.1659   29.1895 H   0  0  0  0  0  0  0  0  0  0  0  0
    0.8663   -2.4021   26.2320 H   0  0  0  0  0  0  0  0  0  0  0  0
    1.2415   -4.0944   26.0366 H   0  0  0  0  0  0  0  0  0  0  0  0
    2.4896   -2.0229   24.3880 H   0  0  0  0  0  0  0  0  0  0  0  0
    1.1152   -2.7641   23.9921 H   0  0  0  0  0  0  0  0  0  0  0  0
  1  2  1  0
  2  3  1  0
  2  4  1  0
  4  5  2  0
  5  6  1  0
  6  7  1  0
  7  8  1  0
  8  9  1  0
  9 10  1  0
 10 11  1  0
 11 12  1  0
 12 13  1  0
 13 14  1  0
 14 15  1  0
 15 16  2  0
 16 17  1  0
 17 18  1  0
 18 19  2  0
 18 20  1  0
 20 21  1  0
 21 22  2  0
 22 23  1  0
 23 24  1  0
 24 25  2  0
 24 26  1  0
 26 27  2  0
 27 28  1  0
 28 29  2  0
 29 30  1  0
 30 31  2  0
 17 32  2  0
 32 33  1  0
 33 34  1  0
 32 35  1  0
  6 36  2  0
 36 37  1  0
 37  4  1  0
 11  7  1  0
 35 15  1  0
 31 21  1  0
 31 26  1  0
  1 38  1  0
  1 39  1  0
  1 40  1  0
  2 41  1  0
  3 42  1  0
  3 43  1  0
  3 44  1  0
  7 45  1  0
  8 46  1  0
  8 47  1  0
  9 48  1  0
  9 49  1  0
 10 50  1  0
 10 51  1  0
 12 52  1  0
 12 53  1  0
 13 54  1  0
 13 55  1  0
 14 56  1  0
 20 57  1  0
 22 58  1  0
 23 59  1  0
 27 60  1  0
 28 61  1  0
 29 62  1  0
 30 63  1  0
 33 64  1  0
 33 65  1  0
 34 66  1  0
 34 67  1  0
M  END
>  <Energy>  (851) 
87.349884070497026

>  <compound_id>  (851) 
4396

>  <target_id>  (851) 
1

>  <reference_id>  (851) 
154

>  <inspiration_ids>  (851) 
[154, 163]

>  <energy_score>  (851) 
-109.0743701537769

>  <distance_score>  (851) 
1.2001269768999747

>  <path>  (851) 
/opt/xchem-fragalysis-2/maxwin/BulkDock/SCRATCH/505735/C4396-P154/C4396-P154.minimised.mol

>  <scratch_subdir>  (851) 
/opt/xchem-fragalysis-2/maxwin/BulkDock/SCRATCH/505735/C4396-P154

>  <fragmenstein_runtime>  (851) 
4.5062079429626465

>  <fragmenstein_outcome>  (851) 
too moved

>  <fragmenstein_mode>  (851) 
expansion

>  <fragmenstein_error>  (851) 


$$$$
C4396-P163
     RDKit          3D

 67 71  0  0  0  0  0  0  0  0999 V2000
    0.9095   -5.3489   32.0958 C   0  0  0  0  0  0  0  0  0  0  0  0
    1.7076   -4.3009   32.8722 C   0  0  0  0  0  0  0  0  0  0  0  0
    3.1698   -4.2754   32.4385 C   0  0  0  0  0  0  0  0  0  0  0  0
    1.0923   -2.9488   32.7461 C   0  0  0  0  0  0  0  0  0  0  0  0
    1.4753   -1.8796   32.0773 N   0  0  0  0  0  0  0  0  0  0  0  0
    0.5184   -0.9496   32.4378 C   0  0  0  0  0  0  0  0  0  0  0  0
    0.5446    0.5156   32.0980 C   0  0  0  0  0  0  0  0  0  0  0  0
    1.6911    1.2895   32.7221 C   0  0  0  0  0  0  0  0  0  0  0  0
    1.6600    2.6214   31.9868 C   0  0  0  0  0  0  0  0  0  0  0  0
    0.8650    2.3754   30.7080 C   0  0  0  0  0  0  0  0  0  0  0  0
    0.5249    0.9414   30.6782 N   0  0  0  0  0  0  0  0  0  0  0  0
    1.4121    0.2271   29.7417 C   0  0  0  0  0  0  0  0  0  0  0  0
    2.9760    0.3558   29.8899 C   0  0  0  0  0  0  0  0  0  0  0  0
    3.7552    0.1747   28.6474 N   0  0  0  0  0  0  0  0  0  0  0  0
    3.7981   -1.0517   28.1021 C   0  0  0  0  0  0  0  0  0  0  0  0
    4.7708   -1.6894   27.4781 N   0  0  0  0  0  0  0  0  0  0  0  0
    4.2143   -2.9303   27.2456 C   0  0  0  0  0  0  0  0  0  0  0  0
    4.7079   -4.0549   26.4820 C   0  0  0  0  0  0  0  0  0  0  0  0
    4.1134   -4.3581   25.5322 O   0  0  0  0  0  0  0  0  0  0  0  0
    5.9096   -4.7164   27.1504 N   0  0  0  0  0  0  0  0  0  0  0  0
    6.5528   -5.8918   26.8639 C   0  0  0  0  0  0  0  0  0  0  0  0
    6.3049   -6.5927   25.7414 C   0  0  0  0  0  0  0  0  0  0  0  0
    6.8139   -7.8482   25.5119 N   0  0  0  0  0  0  0  0  0  0  0  0
    7.6100   -8.5261   26.4043 C   0  0  0  0  0  0  0  0  0  0  0  0
    8.0447   -9.6509   26.1799 O   0  0  0  0  0  0  0  0  0  0  0  0
    7.9142   -7.8086   27.6738 C   0  0  0  0  0  0  0  0  0  0  0  0
    8.6970   -8.4403   28.6438 C   0  0  0  0  0  0  0  0  0  0  0  0
    8.9807   -7.7907   29.8448 C   0  0  0  0  0  0  0  0  0  0  0  0
    8.4862   -6.5146   30.0805 C   0  0  0  0  0  0  0  0  0  0  0  0
    7.7166   -5.8768   29.1096 C   0  0  0  0  0  0  0  0  0  0  0  0
    7.4128   -6.5125   27.8916 C   0  0  0  0  0  0  0  0  0  0  0  0
    2.9707   -2.9995   27.8281 C   0  0  0  0  0  0  0  0  0  0  0  0
    1.9487   -4.0261   28.0458 C   0  0  0  0  0  0  0  0  0  0  0  0
    2.2172   -5.2402   27.3008 N   0  0  0  0  0  0  0  0  0  0  0  0
    2.6816   -1.7831   28.3084 O   0  0  0  0  0  0  0  0  0  0  0  0
   -0.3986   -1.4216   33.2993 N   0  0  0  0  0  0  0  0  0  0  0  0
   -0.0230   -2.7417   33.5001 O   0  0  0  0  0  0  0  0  0  0  0  0
   -0.1231   -5.4045   32.4586 H   0  0  0  0  0  0  0  0  0  0  0  0
    0.8692   -5.1138   31.0274 H   0  0  0  0  0  0  0  0  0  0  0  0
    1.3579   -6.3409   32.2097 H   0  0  0  0  0  0  0  0  0  0  0  0
    1.6858   -4.5794   33.9341 H   0  0  0  0  0  0  0  0  0  0  0  0
    3.7222   -3.4783   32.9493 H   0  0  0  0  0  0  0  0  0  0  0  0
    3.6540   -5.2205   32.6943 H   0  0  0  0  0  0  0  0  0  0  0  0
    3.2711   -4.1135   31.3598 H   0  0  0  0  0  0  0  0  0  0  0  0
   -0.3831    0.9324   32.5228 H   0  0  0  0  0  0  0  0  0  0  0  0
    2.6560    0.7910   32.5827 H   0  0  0  0  0  0  0  0  0  0  0  0
    1.5566    1.4276   33.8007 H   0  0  0  0  0  0  0  0  0  0  0  0
    1.1581    3.3793   32.5997 H   0  0  0  0  0  0  0  0  0  0  0  0
    2.6736    2.9811   31.7832 H   0  0  0  0  0  0  0  0  0  0  0  0
   -0.0483    2.9677   30.7495 H   0  0  0  0  0  0  0  0  0  0  0  0
    1.3979    2.7260   29.8163 H   0  0  0  0  0  0  0  0  0  0  0  0
    1.1205   -0.8275   29.7379 H   0  0  0  0  0  0  0  0  0  0  0  0
    1.1502    0.5810   28.7344 H   0  0  0  0  0  0  0  0  0  0  0  0
    3.3369   -0.3382   30.6582 H   0  0  0  0  0  0  0  0  0  0  0  0
    3.2365    1.3592   30.2319 H   0  0  0  0  0  0  0  0  0  0  0  0
    4.6582    0.6356   28.6599 H   0  0  0  0  0  0  0  0  0  0  0  0
    6.1246   -4.2330   28.0092 H   0  0  0  0  0  0  0  0  0  0  0  0
    5.6604   -6.2255   24.9505 H   0  0  0  0  0  0  0  0  0  0  0  0
    6.5415   -8.3397   24.6559 H   0  0  0  0  0  0  0  0  0  0  0  0
    9.0840   -9.4396   28.4584 H   0  0  0  0  0  0  0  0  0  0  0  0
    9.5995   -8.2758   30.5947 H   0  0  0  0  0  0  0  0  0  0  0  0
    8.7175   -6.0073   31.0139 H   0  0  0  0  0  0  0  0  0  0  0  0
    7.3827   -4.8710   29.3385 H   0  0  0  0  0  0  0  0  0  0  0  0
    0.9480   -3.6358   27.8513 H   0  0  0  0  0  0  0  0  0  0  0  0
    1.9530   -4.2884   29.1089 H   0  0  0  0  0  0  0  0  0  0  0  0
    2.5809   -5.0656   26.3599 H   0  0  0  0  0  0  0  0  0  0  0  0
    1.3618   -5.7817   27.2144 H   0  0  0  0  0  0  0  0  0  0  0  0
  1  2  1  0
  2  3  1  0
  2  4  1  0
  4  5  2  0
  5  6  1  0
  6  7  1  0
  7  8  1  0
  8  9  1  0
  9 10  1  0
 10 11  1  0
 11 12  1  0
 12 13  1  0
 13 14  1  0
 14 15  1  0
 15 16  2  0
 16 17  1  0
 17 18  1  0
 18 19  2  0
 18 20  1  0
 20 21  1  0
 21 22  2  0
 22 23  1  0
 23 24  1  0
 24 25  2  0
 24 26  1  0
 26 27  2  0
 27 28  1  0
 28 29  2  0
 29 30  1  0
 30 31  2  0
 17 32  2  0
 32 33  1  0
 33 34  1  0
 32 35  1  0
  6 36  2  0
 36 37  1  0
 37  4  1  0
 11  7  1  0
 35 15  1  0
 31 21  1  0
 31 26  1  0
  1 38  1  0
  1 39  1  0
  1 40  1  0
  2 41  1  0
  3 42  1  0
  3 43  1  0
  3 44  1  0
  7 45  1  0
  8 46  1  0
  8 47  1  0
  9 48  1  0
  9 49  1  0
 10 50  1  0
 10 51  1  0
 12 52  1  0
 12 53  1  0
 13 54  1  0
 13 55  1  0
 14 56  1  0
 20 57  1  0
 22 58  1  0
 23 59  1  0
 27 60  1  0
 28 61  1  0
 29 62  1  0
 30 63  1  0
 33 64  1  0
 33 65  1  0
 34 66  1  0
 34 67  1  0
M  END
>  <Energy>  (852) 
96.102483783848427

>  <compound_id>  (852) 
4396

>  <target_id>  (852) 
1

>  <reference_id>  (852) 
163

>  <inspiration_ids>  (852) 
[154, 163]

>  <energy_score>  (852) 
-100.32177044042368

>  <distance_score>  (852) 
1.4264815432306681

>  <path>  (852) 
/opt/xchem-fragalysis-2/maxwin/BulkDock/SCRATCH/505735/C4396-P163/C4396-P163.minimised.mol

>  <scratch_subdir>  (852) 
/opt/xchem-fragalysis-2/maxwin/BulkDock/SCRATCH/505735/C4396-P163

>  <fragmenstein_runtime>  (852) 
6.136728286743164

>  <fragmenstein_outcome>  (852) 
too moved

>  <fragmenstein_mode>  (852) 
expansion

>  <fragmenstein_error>  (852) 


$$$$
C4398-P154
     RDKit          3D

 77 81  0  0  0  0  0  0  0  0999 V2000
    2.4502   -2.7018   31.2817 N   0  0  0  0  0  0  0  0  0  0  0  0
    3.5206   -3.6111   30.8792 C   0  0  0  0  0  0  0  0  0  0  0  0
    4.3232   -3.0354   29.7772 C   0  0  0  0  0  0  0  0  0  0  0  0
    4.5838   -1.6950   29.8452 O   0  0  0  0  0  0  0  0  0  0  0  0
    5.3038   -1.3634   28.7499 C   0  0  0  0  0  0  0  0  0  0  0  0
    5.5425   -2.4729   27.9720 C   0  0  0  0  0  0  0  0  0  0  0  0
    6.2468   -2.4946   26.6541 C   0  0  0  0  0  0  0  0  0  0  0  0
    5.4139   -3.1972   25.5907 C   0  0  0  0  0  0  0  0  0  0  0  0
    4.2890   -2.3249   24.9644 C   0  0  0  0  0  0  0  0  0  0  0  0
    3.0538   -3.2232   24.9170 C   0  0  0  0  0  0  0  0  0  0  0  0
    1.7206   -2.6569   24.8397 N   0  0  0  0  0  0  0  0  0  0  0  0
    1.7541   -3.4007   23.2456 C   0  0  0  0  0  0  0  0  0  0  0  0
    1.0634   -4.2923   21.8251 C   0  0  0  0  0  0  0  0  0  0  0  0
    0.7040   -3.7265   20.6168 C   0  0  0  0  0  0  0  0  0  0  0  0
    0.7651   -3.4320   18.8149 C   0  0  0  0  0  0  0  0  0  0  0  0
    2.0037   -3.9315   18.3628 C   0  0  0  0  0  0  0  0  0  0  0  0
    2.3416   -5.1485   19.6806 C   0  0  0  0  0  0  0  0  0  0  0  0
    1.5825   -5.2834   21.0263 C   0  0  0  0  0  0  0  0  0  0  0  0
    0.9583   -3.0153   26.0447 C   0  0  0  0  0  0  0  0  0  0  0  0
    0.2651   -3.9299   26.2517 O   0  0  0  0  0  0  0  0  0  0  0  0
    1.3780   -1.9331   26.9248 N   0  0  0  0  0  0  0  0  0  0  0  0
    0.9922   -1.6144   28.2777 C   0  0  0  0  0  0  0  0  0  0  0  0
   -0.2719   -2.3117   28.7934 C   0  0  0  0  0  0  0  0  0  0  0  0
   -0.0907   -3.4884   29.6088 N   0  0  0  0  0  0  0  0  0  0  0  0
    0.6641   -4.5873   29.3609 C   0  0  0  0  0  0  0  0  0  0  0  0
    0.4884   -5.4751   30.3187 N   0  0  0  0  0  0  0  0  0  0  0  0
   -0.3843   -4.9291   31.2334 N   0  0  0  0  0  0  0  0  0  0  0  0
   -0.7071   -3.7305   30.8010 C   0  0  0  0  0  0  0  0  0  0  0  0
    4.9237   -3.5819   28.6630 C   0  0  0  0  0  0  0  0  0  0  0  0
    4.8579   -4.9856   28.2319 C   0  0  0  0  0  0  0  0  0  0  0  0
    3.7954   -5.5018   28.0456 O   0  0  0  0  0  0  0  0  0  0  0  0
    6.1854   -5.4748   28.0179 N   0  0  0  0  0  0  0  0  0  0  0  0
    6.6335   -6.6346   27.4551 C   0  0  0  0  0  0  0  0  0  0  0  0
    6.0454   -7.1830   26.3765 C   0  0  0  0  0  0  0  0  0  0  0  0
    6.6627   -8.1629   25.6313 N   0  0  0  0  0  0  0  0  0  0  0  0
    7.9364   -8.6265   25.8812 C   0  0  0  0  0  0  0  0  0  0  0  0
    8.5597   -9.3260   25.0897 O   0  0  0  0  0  0  0  0  0  0  0  0
    8.5418   -8.1988   27.1674 C   0  0  0  0  0  0  0  0  0  0  0  0
    9.7193   -8.8059   27.6178 C   0  0  0  0  0  0  0  0  0  0  0  0
   10.2708   -8.4285   28.8412 C   0  0  0  0  0  0  0  0  0  0  0  0
    9.6506   -7.4479   29.6117 C   0  0  0  0  0  0  0  0  0  0  0  0
    8.4764   -6.8410   29.1610 C   0  0  0  0  0  0  0  0  0  0  0  0
    7.9093   -7.2038   27.9272 C   0  0  0  0  0  0  0  0  0  0  0  0
    1.9507   -3.1337   32.0582 H   0  0  0  0  0  0  0  0  0  0  0  0
    2.8876   -1.8533   31.6403 H   0  0  0  0  0  0  0  0  0  0  0  0
    4.1756   -3.7927   31.7389 H   0  0  0  0  0  0  0  0  0  0  0  0
    3.1042   -4.5788   30.5918 H   0  0  0  0  0  0  0  0  0  0  0  0
    5.5558   -0.3159   28.6552 H   0  0  0  0  0  0  0  0  0  0  0  0
    6.4973   -1.4777   26.3333 H   0  0  0  0  0  0  0  0  0  0  0  0
    7.1978   -3.0257   26.7805 H   0  0  0  0  0  0  0  0  0  0  0  0
    6.0446   -3.6309   24.8189 H   0  0  0  0  0  0  0  0  0  0  0  0
    4.9942   -4.1112   26.0075 H   0  0  0  0  0  0  0  0  0  0  0  0
    4.5585   -1.9787   23.9685 H   0  0  0  0  0  0  0  0  0  0  0  0
    4.0966   -1.4337   25.5731 H   0  0  0  0  0  0  0  0  0  0  0  0
    3.0646   -3.3253   26.0225 H   0  0  0  0  0  0  0  0  0  0  0  0
    3.2073   -4.2926   24.9373 H   0  0  0  0  0  0  0  0  0  0  0  0
    1.2046   -2.5411   22.8955 H   0  0  0  0  0  0  0  0  0  0  0  0
    0.9919   -4.0621   23.7203 H   0  0  0  0  0  0  0  0  0  0  0  0
   -0.0984   -4.3407   20.3793 H   0  0  0  0  0  0  0  0  0  0  0  0
    0.5872   -2.3883   18.3832 H   0  0  0  0  0  0  0  0  0  0  0  0
    2.7078   -3.3972   17.7140 H   0  0  0  0  0  0  0  0  0  0  0  0
    3.4711   -5.1974   19.8119 H   0  0  0  0  0  0  0  0  0  0  0  0
    2.5907   -5.2251   21.3034 H   0  0  0  0  0  0  0  0  0  0  0  0
    1.9154   -1.2640   26.3931 H   0  0  0  0  0  0  0  0  0  0  0  0
    1.8596   -1.7915   28.9103 H   0  0  0  0  0  0  0  0  0  0  0  0
    0.8161   -0.5325   28.2720 H   0  0  0  0  0  0  0  0  0  0  0  0
   -0.9646   -2.5832   27.9985 H   0  0  0  0  0  0  0  0  0  0  0  0
   -0.8013   -1.5896   29.4291 H   0  0  0  0  0  0  0  0  0  0  0  0
    1.3165   -4.6856   28.5053 H   0  0  0  0  0  0  0  0  0  0  0  0
   -1.3643   -3.0266   31.2903 H   0  0  0  0  0  0  0  0  0  0  0  0
    6.8492   -4.7929   28.3677 H   0  0  0  0  0  0  0  0  0  0  0  0
    5.1214   -6.8032   25.9504 H   0  0  0  0  0  0  0  0  0  0  0  0
    6.2536   -8.4633   24.7376 H   0  0  0  0  0  0  0  0  0  0  0  0
   10.1957   -9.5829   27.0231 H   0  0  0  0  0  0  0  0  0  0  0  0
   11.1818   -8.9069   29.1935 H   0  0  0  0  0  0  0  0  0  0  0  0
   10.0771   -7.1639   30.5710 H   0  0  0  0  0  0  0  0  0  0  0  0
    8.0016   -6.1077   29.8065 H   0  0  0  0  0  0  0  0  0  0  0  0
  1  2  1  0
  2  3  1  0
  3  4  1  0
  4  5  1  0
  5  6  2  0
  6  7  1  0
  7  8  1  0
  8  9  1  0
  9 10  1  0
 10 11  1  0
 11 12  1  0
 12 13  1  0
 13 14  2  0
 14 15  1  0
 15 16  2  0
 16 17  1  0
 17 18  2  0
 11 19  1  0
 19 20  2  0
 19 21  1  0
 21 22  1  0
 22 23  1  0
 23 24  1  0
 24 25  1  0
 25 26  2  0
 26 27  1  0
 27 28  2  0
  6 29  1  0
 29 30  1  0
 30 31  2  0
 30 32  1  0
 32 33  1  0
 33 34  2  0
 34 35  1  0
 35 36  1  0
 36 37  2  0
 36 38  1  0
 38 39  2  0
 39 40  1  0
 40 41  2  0
 41 42  1  0
 42 43  2  0
 29  3  2  0
 43 33  1  0
 18 13  1  0
 28 24  1  0
 43 38  1  0
  1 44  1  0
  1 45  1  0
  2 46  1  0
  2 47  1  0
  5 48  1  0
  7 49  1  0
  7 50  1  0
  8 51  1  0
  8 52  1  0
  9 53  1  0
  9 54  1  0
 10 55  1  0
 10 56  1  0
 12 57  1  0
 12 58  1  0
 14 59  1  0
 15 60  1  0
 16 61  1  0
 17 62  1  0
 18 63  1  0
 21 64  1  0
 22 65  1  0
 22 66  1  0
 23 67  1  0
 23 68  1  0
 25 69  1  0
 28 70  1  0
 32 71  1  0
 34 72  1  0
 35 73  1  0
 39 74  1  0
 40 75  1  0
 41 76  1  0
 42 77  1  0
M  END
>  <Energy>  (853) 
514.99036509897212

>  <compound_id>  (853) 
4398

>  <target_id>  (853) 
1

>  <reference_id>  (853) 
154

>  <inspiration_ids>  (853) 
[154, 177]

>  <energy_score>  (853) 
470.54264133434776

>  <distance_score>  (853) 
3.161710510768548

>  <path>  (853) 
/opt/xchem-fragalysis-2/maxwin/BulkDock/SCRATCH/505735/C4398-P154/C4398-P154.minimised.mol

>  <scratch_subdir>  (853) 
/opt/xchem-fragalysis-2/maxwin/BulkDock/SCRATCH/505735/C4398-P154

>  <fragmenstein_runtime>  (853) 
36.446998596191406

>  <fragmenstein_outcome>  (853) 
too moved

>  <fragmenstein_mode>  (853) 
expansion

>  <fragmenstein_error>  (853) 


$$$$
C4398-P177
     RDKit          3D

 77 81  0  0  0  0  0  0  0  0999 V2000
    3.1441   -2.8215   30.5125 N   0  0  0  0  0  0  0  0  0  0  0  0
    4.3040   -1.9287   30.3973 C   0  0  0  0  0  0  0  0  0  0  0  0
    4.6404   -1.7540   28.9632 C   0  0  0  0  0  0  0  0  0  0  0  0
    4.1782   -0.6077   28.3953 O   0  0  0  0  0  0  0  0  0  0  0  0
    4.2721   -0.7634   27.0592 C   0  0  0  0  0  0  0  0  0  0  0  0
    4.7574   -2.0185   26.7663 C   0  0  0  0  0  0  0  0  0  0  0  0
    4.5687   -2.7015   25.4615 C   0  0  0  0  0  0  0  0  0  0  0  0
    3.6403   -3.9004   25.6903 C   0  0  0  0  0  0  0  0  0  0  0  0
    2.1975   -3.6184   25.2796 C   0  0  0  0  0  0  0  0  0  0  0  0
    1.8328   -3.7953   23.7183 C   0  0  0  0  0  0  0  0  0  0  0  0
    0.5575   -3.5405   23.1778 N   0  0  0  0  0  0  0  0  0  0  0  0
    1.1070   -4.8036   21.8675 C   0  0  0  0  0  0  0  0  0  0  0  0
    2.0054   -5.6869   20.4509 C   0  0  0  0  0  0  0  0  0  0  0  0
    1.5761   -6.9159   19.9471 C   0  0  0  0  0  0  0  0  0  0  0  0
    2.3557   -7.6226   18.5567 C   0  0  0  0  0  0  0  0  0  0  0  0
    4.0797   -7.1823   18.1537 C   0  0  0  0  0  0  0  0  0  0  0  0
    4.6860   -5.9750   18.5895 C   0  0  0  0  0  0  0  0  0  0  0  0
    3.6066   -5.3370   19.8180 C   0  0  0  0  0  0  0  0  0  0  0  0
   -0.6533   -3.7404   24.4004 C   0  0  0  0  0  0  0  0  0  0  0  0
   -1.2746   -4.6729   24.7015 O   0  0  0  0  0  0  0  0  0  0  0  0
   -0.5817   -2.5415   24.9495 N   0  0  0  0  0  0  0  0  0  0  0  0
   -1.1826   -2.0012   26.1900 C   0  0  0  0  0  0  0  0  0  0  0  0
   -0.4382   -2.7069   27.3542 C   0  0  0  0  0  0  0  0  0  0  0  0
   -0.9375   -2.6585   28.6980 N   0  0  0  0  0  0  0  0  0  0  0  0
   -1.8932   -1.8759   29.2483 C   0  0  0  0  0  0  0  0  0  0  0  0
   -2.0697   -2.2259   30.5046 N   0  0  0  0  0  0  0  0  0  0  0  0
   -1.1995   -3.2530   30.7866 N   0  0  0  0  0  0  0  0  0  0  0  0
   -0.5102   -3.4869   29.6967 C   0  0  0  0  0  0  0  0  0  0  0  0
    5.1945   -2.6070   28.0152 C   0  0  0  0  0  0  0  0  0  0  0  0
    5.7885   -3.9413   28.3362 C   0  0  0  0  0  0  0  0  0  0  0  0
    5.5932   -4.3780   29.4334 O   0  0  0  0  0  0  0  0  0  0  0  0
    6.4475   -4.5254   27.1955 N   0  0  0  0  0  0  0  0  0  0  0  0
    6.9639   -5.7810   26.9984 C   0  0  0  0  0  0  0  0  0  0  0  0
    6.7520   -6.3781   25.8093 C   0  0  0  0  0  0  0  0  0  0  0  0
    7.1868   -7.6436   25.5139 N   0  0  0  0  0  0  0  0  0  0  0  0
    7.9552   -8.4034   26.3596 C   0  0  0  0  0  0  0  0  0  0  0  0
    8.3548   -9.5228   26.0575 O   0  0  0  0  0  0  0  0  0  0  0  0
    8.3039   -7.7717   27.6609 C   0  0  0  0  0  0  0  0  0  0  0  0
    9.1940   -8.4426   28.5101 C   0  0  0  0  0  0  0  0  0  0  0  0
    9.5758   -7.8653   29.7178 C   0  0  0  0  0  0  0  0  0  0  0  0
    9.0838   -6.6130   30.0656 C   0  0  0  0  0  0  0  0  0  0  0  0
    8.2189   -5.9311   29.2030 C   0  0  0  0  0  0  0  0  0  0  0  0
    7.7936   -6.4995   27.9924 C   0  0  0  0  0  0  0  0  0  0  0  0
    3.4264   -3.7260   30.1333 H   0  0  0  0  0  0  0  0  0  0  0  0
    2.4048   -2.4529   29.9199 H   0  0  0  0  0  0  0  0  0  0  0  0
    4.0554   -0.9648   30.8542 H   0  0  0  0  0  0  0  0  0  0  0  0
    5.1508   -2.3380   30.9567 H   0  0  0  0  0  0  0  0  0  0  0  0
    3.8330    0.0259   26.4627 H   0  0  0  0  0  0  0  0  0  0  0  0
    4.1497   -2.0206   24.7208 H   0  0  0  0  0  0  0  0  0  0  0  0
    5.5243   -3.0143   25.0453 H   0  0  0  0  0  0  0  0  0  0  0  0
    4.0652   -4.7981   25.2521 H   0  0  0  0  0  0  0  0  0  0  0  0
    3.5870   -4.1691   26.7530 H   0  0  0  0  0  0  0  0  0  0  0  0
    1.9616   -2.5958   25.6090 H   0  0  0  0  0  0  0  0  0  0  0  0
    1.5979   -4.2350   25.9376 H   0  0  0  0  0  0  0  0  0  0  0  0
    2.6349   -3.7148   23.0033 H   0  0  0  0  0  0  0  0  0  0  0  0
    1.9782   -2.7084   23.7117 H   0  0  0  0  0  0  0  0  0  0  0  0
    0.5320   -5.6711   22.1725 H   0  0  0  0  0  0  0  0  0  0  0  0
    0.5378   -4.3147   21.0851 H   0  0  0  0  0  0  0  0  0  0  0  0
    0.7456   -7.5225   20.3176 H   0  0  0  0  0  0  0  0  0  0  0  0
    1.9749   -8.5927   18.1870 H   0  0  0  0  0  0  0  0  0  0  0  0
    4.8086   -7.9608   18.0735 H   0  0  0  0  0  0  0  0  0  0  0  0
    5.7308   -5.7180   18.5205 H   0  0  0  0  0  0  0  0  0  0  0  0
    4.2825   -4.6791   20.3442 H   0  0  0  0  0  0  0  0  0  0  0  0
    0.1127   -2.0276   24.4792 H   0  0  0  0  0  0  0  0  0  0  0  0
   -2.2442   -2.2466   26.1659 H   0  0  0  0  0  0  0  0  0  0  0  0
   -1.0943   -0.9261   26.3167 H   0  0  0  0  0  0  0  0  0  0  0  0
    0.5816   -2.3053   27.4059 H   0  0  0  0  0  0  0  0  0  0  0  0
   -0.3468   -3.7757   27.1298 H   0  0  0  0  0  0  0  0  0  0  0  0
   -2.4362   -1.1032   28.7246 H   0  0  0  0  0  0  0  0  0  0  0  0
    0.2676   -4.2282   29.5775 H   0  0  0  0  0  0  0  0  0  0  0  0
    6.3558   -3.9062   26.4122 H   0  0  0  0  0  0  0  0  0  0  0  0
    6.1789   -5.9126   25.0152 H   0  0  0  0  0  0  0  0  0  0  0  0
    6.9106   -8.0800   24.6328 H   0  0  0  0  0  0  0  0  0  0  0  0
    9.5999   -9.4079   28.2147 H   0  0  0  0  0  0  0  0  0  0  0  0
   10.2722   -8.3798   30.3746 H   0  0  0  0  0  0  0  0  0  0  0  0
    9.3951   -6.1444   30.9963 H   0  0  0  0  0  0  0  0  0  0  0  0
    7.9211   -4.9295   29.4936 H   0  0  0  0  0  0  0  0  0  0  0  0
  1  2  1  0
  2  3  1  0
  3  4  1  0
  4  5  1  0
  5  6  2  0
  6  7  1  0
  7  8  1  0
  8  9  1  0
  9 10  1  0
 10 11  1  0
 11 12  1  0
 12 13  1  0
 13 14  2  0
 14 15  1  0
 15 16  2  0
 16 17  1  0
 17 18  2  0
 11 19  1  0
 19 20  2  0
 19 21  1  0
 21 22  1  0
 22 23  1  0
 23 24  1  0
 24 25  1  0
 25 26  2  0
 26 27  1  0
 27 28  2  0
  6 29  1  0
 29 30  1  0
 30 31  2  0
 30 32  1  0
 32 33  1  0
 33 34  2  0
 34 35  1  0
 35 36  1  0
 36 37  2  0
 36 38  1  0
 38 39  2  0
 39 40  1  0
 40 41  2  0
 41 42  1  0
 42 43  2  0
 29  3  2  0
 43 33  1  0
 18 13  1  0
 28 24  1  0
 43 38  1  0
  1 44  1  0
  1 45  1  0
  2 46  1  0
  2 47  1  0
  5 48  1  0
  7 49  1  0
  7 50  1  0
  8 51  1  0
  8 52  1  0
  9 53  1  0
  9 54  1  0
 10 55  1  0
 10 56  1  0
 12 57  1  0
 12 58  1  0
 14 59  1  0
 15 60  1  0
 16 61  1  0
 17 62  1  0
 18 63  1  0
 21 64  1  0
 22 65  1  0
 22 66  1  0
 23 67  1  0
 23 68  1  0
 25 69  1  0
 28 70  1  0
 32 71  1  0
 34 72  1  0
 35 73  1  0
 39 74  1  0
 40 75  1  0
 41 76  1  0
 42 77  1  0
M  END
>  <Energy>  (854) 
449.20892897287246

>  <compound_id>  (854) 
4398

>  <target_id>  (854) 
1

>  <reference_id>  (854) 
177

>  <inspiration_ids>  (854) 
[154, 177]

>  <energy_score>  (854) 
404.7612052082428

>  <distance_score>  (854) 
2.906632910251881

>  <path>  (854) 
/opt/xchem-fragalysis-2/maxwin/BulkDock/SCRATCH/505735/C4398-P177/C4398-P177.minimised.mol

>  <scratch_subdir>  (854) 
/opt/xchem-fragalysis-2/maxwin/BulkDock/SCRATCH/505735/C4398-P177

>  <fragmenstein_runtime>  (854) 
32.977662801742554

>  <fragmenstein_outcome>  (854) 
too moved

>  <fragmenstein_mode>  (854) 
expansion

>  <fragmenstein_error>  (854) 


$$$$
C4399-P154
     RDKit          3D

 74 79  0  0  0  0  0  0  0  0999 V2000
    4.5478   -0.6413   32.3978 C   0  0  0  0  0  0  0  0  0  0  0  0
    4.0437   -1.9379   32.0798 O   0  0  0  0  0  0  0  0  0  0  0  0
    2.8039   -2.1871   32.6036 C   0  0  0  0  0  0  0  0  0  0  0  0
    2.6140   -3.4751   33.1092 C   0  0  0  0  0  0  0  0  0  0  0  0
    1.3575   -3.8577   33.5995 C   0  0  0  0  0  0  0  0  0  0  0  0
    0.9364   -5.2673   33.6160 C   0  0  0  0  0  0  0  0  0  0  0  0
    0.3237   -5.9921   34.7294 C   0  0  0  0  0  0  0  0  0  0  0  0
   -0.4716   -7.0627   34.5188 C   0  0  0  0  0  0  0  0  0  0  0  0
   -0.7434   -7.4768   33.1852 C   0  0  0  0  0  0  0  0  0  0  0  0
   -1.5728   -8.3491   32.6598 N   0  0  0  0  0  0  0  0  0  0  0  0
   -1.4547   -8.2931   31.2923 N   0  0  0  0  0  0  0  0  0  0  0  0
   -0.5698   -7.3721   31.0020 C   0  0  0  0  0  0  0  0  0  0  0  0
   -0.2477   -6.9259   29.7723 N   0  0  0  0  0  0  0  0  0  0  0  0
   -0.0751   -6.8289   32.1667 N   0  0  0  0  0  0  0  0  0  0  0  0
    0.7681   -5.7529   32.3681 C   0  0  0  0  0  0  0  0  0  0  0  0
    0.3340   -2.9065   33.7139 C   0  0  0  0  0  0  0  0  0  0  0  0
    0.5116   -1.6409   33.1724 C   0  0  0  0  0  0  0  0  0  0  0  0
    1.7113   -1.3146   32.5411 C   0  0  0  0  0  0  0  0  0  0  0  0
    1.6955   -0.1685   31.7830 O   0  0  0  0  0  0  0  0  0  0  0  0
    1.6337   -0.4963   30.3751 C   0  0  0  0  0  0  0  0  0  0  0  0
    0.2339   -0.9571   29.9509 C   0  0  0  0  0  0  0  0  0  0  0  0
    0.1583   -1.4106   28.5075 C   0  0  0  0  0  0  0  0  0  0  0  0
    1.0394   -2.6274   28.2342 C   0  0  0  0  0  0  0  0  0  0  0  0
    0.8511   -3.0572   26.8599 N   0  0  0  0  0  0  0  0  0  0  0  0
    1.9842   -3.7832   26.3340 C   0  0  0  0  0  0  0  0  0  0  0  0
    3.1911   -2.9493   26.1771 C   0  0  0  0  0  0  0  0  0  0  0  0
    3.0950   -1.7541   25.5287 O   0  0  0  0  0  0  0  0  0  0  0  0
    4.3810   -1.3096   25.4821 C   0  0  0  0  0  0  0  0  0  0  0  0
    5.2699   -2.1018   26.0416 N   0  0  0  0  0  0  0  0  0  0  0  0
    4.5053   -3.1353   26.5296 C   0  0  0  0  0  0  0  0  0  0  0  0
    5.0097   -4.3158   27.2007 C   0  0  0  0  0  0  0  0  0  0  0  0
    4.5952   -4.6506   28.2393 O   0  0  0  0  0  0  0  0  0  0  0  0
    6.0245   -4.9976   26.2632 N   0  0  0  0  0  0  0  0  0  0  0  0
    6.6351   -6.2060   26.3541 C   0  0  0  0  0  0  0  0  0  0  0  0
    6.6714   -6.9890   25.2672 C   0  0  0  0  0  0  0  0  0  0  0  0
    7.1361   -8.2742   25.3102 N   0  0  0  0  0  0  0  0  0  0  0  0
    7.6425   -8.8746   26.4367 C   0  0  0  0  0  0  0  0  0  0  0  0
    8.0100  -10.0429   26.4418 O   0  0  0  0  0  0  0  0  0  0  0  0
    7.7165   -8.0182   27.6514 C   0  0  0  0  0  0  0  0  0  0  0  0
    8.3404   -8.5125   28.8000 C   0  0  0  0  0  0  0  0  0  0  0  0
    8.4535   -7.7111   29.9355 C   0  0  0  0  0  0  0  0  0  0  0  0
    7.9555   -6.4141   29.9190 C   0  0  0  0  0  0  0  0  0  0  0  0
    7.3518   -5.9147   28.7640 C   0  0  0  0  0  0  0  0  0  0  0  0
    7.2001   -6.7125   27.6180 C   0  0  0  0  0  0  0  0  0  0  0  0
    5.6406   -0.6969   32.3740 H   0  0  0  0  0  0  0  0  0  0  0  0
    4.2535   -0.3114   33.4007 H   0  0  0  0  0  0  0  0  0  0  0  0
    4.2391    0.0866   31.6424 H   0  0  0  0  0  0  0  0  0  0  0  0
    3.4176   -4.2024   33.0214 H   0  0  0  0  0  0  0  0  0  0  0  0
    0.5064   -5.6293   35.7372 H   0  0  0  0  0  0  0  0  0  0  0  0
   -0.9437   -7.5945   35.3379 H   0  0  0  0  0  0  0  0  0  0  0  0
    0.0942   -5.9750   29.6526 H   0  0  0  0  0  0  0  0  0  0  0  0
   -0.9592   -7.1204   29.0679 H   0  0  0  0  0  0  0  0  0  0  0  0
    1.1249   -5.2500   31.4768 H   0  0  0  0  0  0  0  0  0  0  0  0
   -0.6483   -3.1881   34.0921 H   0  0  0  0  0  0  0  0  0  0  0  0
   -0.3167   -0.9374   33.1591 H   0  0  0  0  0  0  0  0  0  0  0  0
    2.4157   -1.2178   30.1241 H   0  0  0  0  0  0  0  0  0  0  0  0
    1.8832    0.4244   29.8349 H   0  0  0  0  0  0  0  0  0  0  0  0
   -0.1165   -1.7784   30.5839 H   0  0  0  0  0  0  0  0  0  0  0  0
   -0.4732   -0.1352   30.1196 H   0  0  0  0  0  0  0  0  0  0  0  0
   -0.8871   -1.6589   28.2925 H   0  0  0  0  0  0  0  0  0  0  0  0
    0.4491   -0.5788   27.8552 H   0  0  0  0  0  0  0  0  0  0  0  0
    0.7769   -3.4482   28.9115 H   0  0  0  0  0  0  0  0  0  0  0  0
    2.0821   -2.3639   28.4261 H   0  0  0  0  0  0  0  0  0  0  0  0
    0.6959   -2.2619   26.2395 H   0  0  0  0  0  0  0  0  0  0  0  0
    2.2017   -4.6563   26.9566 H   0  0  0  0  0  0  0  0  0  0  0  0
    1.6888   -4.1588   25.3554 H   0  0  0  0  0  0  0  0  0  0  0  0
    4.5448   -0.3678   24.9799 H   0  0  0  0  0  0  0  0  0  0  0  0
    6.0950   -4.4677   25.3956 H   0  0  0  0  0  0  0  0  0  0  0  0
    6.2510   -6.6860   24.3118 H   0  0  0  0  0  0  0  0  0  0  0  0
    6.9555   -8.8697   24.4989 H   0  0  0  0  0  0  0  0  0  0  0  0
    8.7561   -9.5165   28.7914 H   0  0  0  0  0  0  0  0  0  0  0  0
    8.9507   -8.0862   30.8257 H   0  0  0  0  0  0  0  0  0  0  0  0
    8.0623   -5.7761   30.7928 H   0  0  0  0  0  0  0  0  0  0  0  0
    7.0373   -4.8754   28.7722 H   0  0  0  0  0  0  0  0  0  0  0  0
  1  2  1  0
  2  3  1  0
  3  4  2  0
  4  5  1  0
  5  6  1  0
  6  7  1  0
  7  8  2  0
  8  9  1  0
  9 10  2  0
 10 11  1  0
 11 12  2  0
 12 13  1  0
 12 14  1  0
 14 15  1  0
  5 16  2  0
 16 17  1  0
 17 18  2  0
 18 19  1  0
 19 20  1  0
 20 21  1  0
 21 22  1  0
 22 23  1  0
 23 24  1  0
 24 25  1  0
 25 26  1  0
 26 27  1  0
 27 28  1  0
 28 29  2  0
 29 30  1  0
 30 31  1  0
 31 32  2  0
 31 33  1  0
 33 34  1  0
 34 35  2  0
 35 36  1  0
 36 37  1  0
 37 38  2  0
 37 39  1  0
 39 40  2  0
 40 41  1  0
 41 42  2  0
 42 43  1  0
 43 44  2  0
 18  3  1  0
 30 26  2  0
 44 34  1  0
 15  6  2  0
 44 39  1  0
 14  9  1  0
  1 45  1  0
  1 46  1  0
  1 47  1  0
  4 48  1  0
  7 49  1  0
  8 50  1  0
 13 51  1  0
 13 52  1  0
 15 53  1  0
 16 54  1  0
 17 55  1  0
 20 56  1  0
 20 57  1  0
 21 58  1  0
 21 59  1  0
 22 60  1  0
 22 61  1  0
 23 62  1  0
 23 63  1  0
 24 64  1  0
 25 65  1  0
 25 66  1  0
 28 67  1  0
 33 68  1  0
 35 69  1  0
 36 70  1  0
 40 71  1  0
 41 72  1  0
 42 73  1  0
 43 74  1  0
M  END
>  <Energy>  (855) 
157.8529785078166

>  <compound_id>  (855) 
4399

>  <target_id>  (855) 
1

>  <reference_id>  (855) 
154

>  <inspiration_ids>  (855) 
[154, 180]

>  <energy_score>  (855) 
-87.11039714043824

>  <distance_score>  (855) 
1.3152493507340544

>  <path>  (855) 
/opt/xchem-fragalysis-2/maxwin/BulkDock/SCRATCH/505735/C4399-P154/C4399-P154.minimised.mol

>  <scratch_subdir>  (855) 
/opt/xchem-fragalysis-2/maxwin/BulkDock/SCRATCH/505735/C4399-P154

>  <fragmenstein_runtime>  (855) 
18.68876552581787

>  <fragmenstein_outcome>  (855) 
too moved

>  <fragmenstein_mode>  (855) 
expansion

>  <fragmenstein_error>  (855) 


$$$$
C4399-P180
     RDKit          3D

 74 79  0  0  0  0  0  0  0  0999 V2000
    3.3901   -0.0141   32.4266 C   0  0  0  0  0  0  0  0  0  0  0  0
    3.1237   -1.3851   32.1292 O   0  0  0  0  0  0  0  0  0  0  0  0
    1.8960   -1.8091   32.5648 C   0  0  0  0  0  0  0  0  0  0  0  0
    1.8610   -3.1032   33.0893 C   0  0  0  0  0  0  0  0  0  0  0  0
    0.6407   -3.6623   33.4888 C   0  0  0  0  0  0  0  0  0  0  0  0
    0.4330   -5.1168   33.5731 C   0  0  0  0  0  0  0  0  0  0  0  0
   -0.2613   -5.8118   34.6599 C   0  0  0  0  0  0  0  0  0  0  0  0
   -0.9381   -6.9567   34.4408 C   0  0  0  0  0  0  0  0  0  0  0  0
   -0.9696   -7.5005   33.1296 C   0  0  0  0  0  0  0  0  0  0  0  0
   -1.6686   -8.4579   32.5695 N   0  0  0  0  0  0  0  0  0  0  0  0
   -1.2536   -8.5930   31.2685 N   0  0  0  0  0  0  0  0  0  0  0  0
   -0.3271   -7.6954   31.0457 C   0  0  0  0  0  0  0  0  0  0  0  0
    0.4158   -7.5791   29.9244 N   0  0  0  0  0  0  0  0  0  0  0  0
   -0.1656   -6.9162   32.1710 N   0  0  0  0  0  0  0  0  0  0  0  0
    0.5287   -5.7357   32.3754 C   0  0  0  0  0  0  0  0  0  0  0  0
   -0.5186   -2.8738   33.4919 C   0  0  0  0  0  0  0  0  0  0  0  0
   -0.4898   -1.6059   32.9323 C   0  0  0  0  0  0  0  0  0  0  0  0
    0.6922   -1.1135   32.3889 C   0  0  0  0  0  0  0  0  0  0  0  0
    0.5585   -0.0104   31.5771 O   0  0  0  0  0  0  0  0  0  0  0  0
    0.6838   -0.4156   30.1946 C   0  0  0  0  0  0  0  0  0  0  0  0
   -0.6266   -0.9725   29.6217 C   0  0  0  0  0  0  0  0  0  0  0  0
   -0.4556   -1.8446   28.3805 C   0  0  0  0  0  0  0  0  0  0  0  0
    0.2739   -3.1767   28.6643 C   0  0  0  0  0  0  0  0  0  0  0  0
    1.4733   -3.4098   27.8338 N   0  0  0  0  0  0  0  0  0  0  0  0
    2.4943   -2.4142   28.1549 C   0  0  0  0  0  0  0  0  0  0  0  0
    3.5810   -2.3300   27.1787 C   0  0  0  0  0  0  0  0  0  0  0  0
    3.7028   -1.1494   26.4987 O   0  0  0  0  0  0  0  0  0  0  0  0
    4.7380   -1.3666   25.6522 C   0  0  0  0  0  0  0  0  0  0  0  0
    5.3017   -2.5506   25.7600 N   0  0  0  0  0  0  0  0  0  0  0  0
    4.5792   -3.1689   26.7620 C   0  0  0  0  0  0  0  0  0  0  0  0
    4.8518   -4.5020   27.2726 C   0  0  0  0  0  0  0  0  0  0  0  0
    4.3664   -4.8977   28.2588 O   0  0  0  0  0  0  0  0  0  0  0  0
    5.8441   -5.1766   26.3077 N   0  0  0  0  0  0  0  0  0  0  0  0
    6.4837   -6.3683   26.3931 C   0  0  0  0  0  0  0  0  0  0  0  0
    6.5613   -7.1184   25.2889 C   0  0  0  0  0  0  0  0  0  0  0  0
    7.0404   -8.3981   25.3108 N   0  0  0  0  0  0  0  0  0  0  0  0
    7.4974   -9.0333   26.4396 C   0  0  0  0  0  0  0  0  0  0  0  0
    7.8414  -10.2086   26.4289 O   0  0  0  0  0  0  0  0  0  0  0  0
    7.5368   -8.2097   27.6788 C   0  0  0  0  0  0  0  0  0  0  0  0
    8.1054   -8.7444   28.8399 C   0  0  0  0  0  0  0  0  0  0  0  0
    8.2220   -7.9559   29.9828 C   0  0  0  0  0  0  0  0  0  0  0  0
    7.7758   -6.6379   29.9646 C   0  0  0  0  0  0  0  0  0  0  0  0
    7.1960   -6.1107   28.8083 C   0  0  0  0  0  0  0  0  0  0  0  0
    7.0393   -6.8944   27.6540 C   0  0  0  0  0  0  0  0  0  0  0  0
    4.4762    0.1042   32.4904 H   0  0  0  0  0  0  0  0  0  0  0  0
    2.9648    0.2968   33.3878 H   0  0  0  0  0  0  0  0  0  0  0  0
    3.0363    0.6299   31.6168 H   0  0  0  0  0  0  0  0  0  0  0  0
    2.7709   -3.6976   33.0980 H   0  0  0  0  0  0  0  0  0  0  0  0
   -0.2483   -5.3559   35.6466 H   0  0  0  0  0  0  0  0  0  0  0  0
   -1.4752   -7.4691   35.2311 H   0  0  0  0  0  0  0  0  0  0  0  0
    1.2695   -7.0362   29.9673 H   0  0  0  0  0  0  0  0  0  0  0  0
    0.5432   -8.4910   29.4864 H   0  0  0  0  0  0  0  0  0  0  0  0
    0.9548   -5.2775   31.4905 H   0  0  0  0  0  0  0  0  0  0  0  0
   -1.4769   -3.2839   33.8085 H   0  0  0  0  0  0  0  0  0  0  0  0
   -1.4120   -1.0385   32.8329 H   0  0  0  0  0  0  0  0  0  0  0  0
    1.5060   -1.1196   30.1063 H   0  0  0  0  0  0  0  0  0  0  0  0
    0.9741    0.4763   29.6276 H   0  0  0  0  0  0  0  0  0  0  0  0
   -1.1789   -1.5486   30.3698 H   0  0  0  0  0  0  0  0  0  0  0  0
   -1.2798   -0.1243   29.3800 H   0  0  0  0  0  0  0  0  0  0  0  0
   -1.4552   -2.0760   27.9935 H   0  0  0  0  0  0  0  0  0  0  0  0
    0.0293   -1.2544   27.5981 H   0  0  0  0  0  0  0  0  0  0  0  0
   -0.4302   -3.9897   28.4614 H   0  0  0  0  0  0  0  0  0  0  0  0
    0.5356   -3.2761   29.7245 H   0  0  0  0  0  0  0  0  0  0  0  0
    1.8540   -4.3291   28.0581 H   0  0  0  0  0  0  0  0  0  0  0  0
    2.0668   -1.4106   28.1759 H   0  0  0  0  0  0  0  0  0  0  0  0
    2.9133   -2.6169   29.1477 H   0  0  0  0  0  0  0  0  0  0  0  0
    4.9818   -0.5552   24.9812 H   0  0  0  0  0  0  0  0  0  0  0  0
    6.1260   -4.5073   25.5841 H   0  0  0  0  0  0  0  0  0  0  0  0
    6.1543   -6.7901   24.3351 H   0  0  0  0  0  0  0  0  0  0  0  0
    6.8798   -8.9622   24.4769 H   0  0  0  0  0  0  0  0  0  0  0  0
    8.4728   -9.7682   28.8420 H   0  0  0  0  0  0  0  0  0  0  0  0
    8.6741   -8.3647   30.8827 H   0  0  0  0  0  0  0  0  0  0  0  0
    7.8909   -6.0122   30.8465 H   0  0  0  0  0  0  0  0  0  0  0  0
    6.9039   -5.0650   28.8216 H   0  0  0  0  0  0  0  0  0  0  0  0
  1  2  1  0
  2  3  1  0
  3  4  2  0
  4  5  1  0
  5  6  1  0
  6  7  1  0
  7  8  2  0
  8  9  1  0
  9 10  2  0
 10 11  1  0
 11 12  2  0
 12 13  1  0
 12 14  1  0
 14 15  1  0
  5 16  2  0
 16 17  1  0
 17 18  2  0
 18 19  1  0
 19 20  1  0
 20 21  1  0
 21 22  1  0
 22 23  1  0
 23 24  1  0
 24 25  1  0
 25 26  1  0
 26 27  1  0
 27 28  1  0
 28 29  2  0
 29 30  1  0
 30 31  1  0
 31 32  2  0
 31 33  1  0
 33 34  1  0
 34 35  2  0
 35 36  1  0
 36 37  1  0
 37 38  2  0
 37 39  1  0
 39 40  2  0
 40 41  1  0
 41 42  2  0
 42 43  1  0
 43 44  2  0
 18  3  1  0
 30 26  2  0
 44 34  1  0
 15  6  2  0
 44 39  1  0
 14  9  1  0
  1 45  1  0
  1 46  1  0
  1 47  1  0
  4 48  1  0
  7 49  1  0
  8 50  1  0
 13 51  1  0
 13 52  1  0
 15 53  1  0
 16 54  1  0
 17 55  1  0
 20 56  1  0
 20 57  1  0
 21 58  1  0
 21 59  1  0
 22 60  1  0
 22 61  1  0
 23 62  1  0
 23 63  1  0
 24 64  1  0
 25 65  1  0
 25 66  1  0
 28 67  1  0
 33 68  1  0
 35 69  1  0
 36 70  1  0
 40 71  1  0
 41 72  1  0
 42 73  1  0
 43 74  1  0
M  END
>  <Energy>  (856) 
158.35390058305734

>  <compound_id>  (856) 
4399

>  <target_id>  (856) 
1

>  <reference_id>  (856) 
180

>  <inspiration_ids>  (856) 
[154, 180]

>  <energy_score>  (856) 
-86.60947506519358

>  <distance_score>  (856) 
1.4186174475458107

>  <path>  (856) 
/opt/xchem-fragalysis-2/maxwin/BulkDock/SCRATCH/505735/C4399-P180/C4399-P180.minimised.mol

>  <scratch_subdir>  (856) 
/opt/xchem-fragalysis-2/maxwin/BulkDock/SCRATCH/505735/C4399-P180

>  <fragmenstein_runtime>  (856) 
8.588326930999756

>  <fragmenstein_outcome>  (856) 
too moved

>  <fragmenstein_mode>  (856) 
expansion

>  <fragmenstein_error>  (856) 


$$$$
C4400-P154
     RDKit          3D

 70 74  0  0  0  0  0  0  0  0999 V2000
    0.9149   -1.4588   33.7060 C   0  0  0  0  0  0  0  0  0  0  0  0
    1.1771   -2.8634   33.2768 N   0  0  0  0  0  0  0  0  0  0  0  0
    2.4802   -2.2267   32.7560 C   0  0  0  0  0  0  0  0  0  0  0  0
    2.6422   -1.1387   31.6937 C   0  0  0  0  0  0  0  0  0  0  0  0
    3.7802   -0.3166   31.7974 C   0  0  0  0  0  0  0  0  0  0  0  0
    4.0654    0.6614   30.8414 C   0  0  0  0  0  0  0  0  0  0  0  0
    3.2243    0.8501   29.7417 C   0  0  0  0  0  0  0  0  0  0  0  0
    3.5526    1.9230   28.7259 C   0  0  0  0  0  0  0  0  0  0  0  0
    3.5873    1.5070   27.2453 C   0  0  0  0  0  0  0  0  0  0  0  0
    4.6168    0.5188   26.9561 N   0  0  0  0  0  0  0  0  0  0  0  0
    4.3173   -0.7918   26.9938 C   0  0  0  0  0  0  0  0  0  0  0  0
    5.1350   -1.7966   27.2162 N   0  0  0  0  0  0  0  0  0  0  0  0
    4.2870   -2.8834   27.3488 C   0  0  0  0  0  0  0  0  0  0  0  0
    4.7187   -4.2275   27.7228 C   0  0  0  0  0  0  0  0  0  0  0  0
    4.3596   -4.6809   28.7746 O   0  0  0  0  0  0  0  0  0  0  0  0
    5.6042   -4.7591   26.7243 N   0  0  0  0  0  0  0  0  0  0  0  0
    6.2282   -5.9721   26.6325 C   0  0  0  0  0  0  0  0  0  0  0  0
    6.1946   -6.6472   25.4730 C   0  0  0  0  0  0  0  0  0  0  0  0
    6.7546   -7.8872   25.3201 N   0  0  0  0  0  0  0  0  0  0  0  0
    7.4609   -8.5425   26.2974 C   0  0  0  0  0  0  0  0  0  0  0  0
    7.9745   -9.6402   26.1138 O   0  0  0  0  0  0  0  0  0  0  0  0
    7.5918   -7.8249   27.5941 C   0  0  0  0  0  0  0  0  0  0  0  0
    8.3727   -8.3964   28.6083 C   0  0  0  0  0  0  0  0  0  0  0  0
    8.5819   -7.7045   29.7988 C   0  0  0  0  0  0  0  0  0  0  0  0
    8.0120   -6.4487   29.9759 C   0  0  0  0  0  0  0  0  0  0  0  0
    7.2299   -5.8824   28.9643 C   0  0  0  0  0  0  0  0  0  0  0  0
    6.9841   -6.5652   27.7619 C   0  0  0  0  0  0  0  0  0  0  0  0
    2.9918   -2.4844   27.1188 C   0  0  0  0  0  0  0  0  0  0  0  0
    1.6941   -3.1693   27.0778 C   0  0  0  0  0  0  0  0  0  0  0  0
    1.5020   -3.7565   25.7618 N   0  0  0  0  0  0  0  0  0  0  0  0
    3.0064   -1.1458   26.8676 O   0  0  0  0  0  0  0  0  0  0  0  0
    2.0798    0.0496   29.6410 C   0  0  0  0  0  0  0  0  0  0  0  0
    1.8064   -0.9505   30.5887 C   0  0  0  0  0  0  0  0  0  0  0  0
    0.5694   -3.6568   32.2493 C   0  0  0  0  0  0  0  0  0  0  0  0
   -0.2436   -3.3634   31.4126 O   0  0  0  0  0  0  0  0  0  0  0  0
    1.1143   -5.0802   32.3792 C   0  0  0  0  0  0  0  0  0  0  0  0
    0.2196   -6.0779   31.8369 N   0  0  0  0  0  0  0  0  0  0  0  0
    0.0758   -6.4006   30.5238 C   0  0  0  0  0  0  0  0  0  0  0  0
   -0.7751   -7.3952   30.4079 N   0  0  0  0  0  0  0  0  0  0  0  0
   -1.1936   -7.7304   31.6758 N   0  0  0  0  0  0  0  0  0  0  0  0
   -0.5843   -6.9309   32.5245 C   0  0  0  0  0  0  0  0  0  0  0  0
    1.6250   -1.0125   34.4178 H   0  0  0  0  0  0  0  0  0  0  0  0
    0.5611   -0.7934   32.9106 H   0  0  0  0  0  0  0  0  0  0  0  0
    0.0040   -1.5694   34.3146 H   0  0  0  0  0  0  0  0  0  0  0  0
    2.9985   -3.0788   32.2864 H   0  0  0  0  0  0  0  0  0  0  0  0
    3.1362   -2.0336   33.6246 H   0  0  0  0  0  0  0  0  0  0  0  0
    4.4776   -0.4404   32.6247 H   0  0  0  0  0  0  0  0  0  0  0  0
    4.9624    1.2657   30.9605 H   0  0  0  0  0  0  0  0  0  0  0  0
    2.8149    2.7268   28.8469 H   0  0  0  0  0  0  0  0  0  0  0  0
    4.5258    2.3678   28.9733 H   0  0  0  0  0  0  0  0  0  0  0  0
    2.5944    1.1902   26.9057 H   0  0  0  0  0  0  0  0  0  0  0  0
    3.8229    2.4012   26.6555 H   0  0  0  0  0  0  0  0  0  0  0  0
    5.5509    0.7360   27.2806 H   0  0  0  0  0  0  0  0  0  0  0  0
    5.6106   -4.1345   25.9205 H   0  0  0  0  0  0  0  0  0  0  0  0
    5.6673   -6.2827   24.5995 H   0  0  0  0  0  0  0  0  0  0  0  0
    6.5750   -8.3999   24.4499 H   0  0  0  0  0  0  0  0  0  0  0  0
    8.8329   -9.3701   28.4549 H   0  0  0  0  0  0  0  0  0  0  0  0
    9.2065   -8.1324   30.5776 H   0  0  0  0  0  0  0  0  0  0  0  0
    8.1911   -5.8940   30.8933 H   0  0  0  0  0  0  0  0  0  0  0  0
    6.8491   -4.8786   29.1265 H   0  0  0  0  0  0  0  0  0  0  0  0
    0.8773   -2.4757   27.3036 H   0  0  0  0  0  0  0  0  0  0  0  0
    1.6659   -3.9556   27.8392 H   0  0  0  0  0  0  0  0  0  0  0  0
    1.3094   -2.9949   25.0967 H   0  0  0  0  0  0  0  0  0  0  0  0
    0.6281   -4.2826   25.7846 H   0  0  0  0  0  0  0  0  0  0  0  0
    1.3966    0.1721   28.8025 H   0  0  0  0  0  0  0  0  0  0  0  0
    0.9233   -1.5621   30.4353 H   0  0  0  0  0  0  0  0  0  0  0  0
    1.2930   -5.3311   33.4308 H   0  0  0  0  0  0  0  0  0  0  0  0
    2.0604   -5.1578   31.8330 H   0  0  0  0  0  0  0  0  0  0  0  0
    0.5899   -5.8903   29.7214 H   0  0  0  0  0  0  0  0  0  0  0  0
   -0.6982   -6.9352   33.6002 H   0  0  0  0  0  0  0  0  0  0  0  0
  1  2  1  0
  2  3  1  0
  3  4  1  0
  4  5  2  0
  5  6  1  0
  6  7  2  0
  7  8  1  0
  8  9  1  0
  9 10  1  0
 10 11  1  0
 11 12  2  0
 12 13  1  0
 13 14  1  0
 14 15  2  0
 14 16  1  0
 16 17  1  0
 17 18  2  0
 18 19  1  0
 19 20  1  0
 20 21  2  0
 20 22  1  0
 22 23  2  0
 23 24  1  0
 24 25  2  0
 25 26  1  0
 26 27  2  0
 13 28  2  0
 28 29  1  0
 29 30  1  0
 28 31  1  0
  7 32  1  0
 32 33  2  0
  2 34  1  0
 34 35  2  0
 34 36  1  0
 36 37  1  0
 37 38  1  0
 38 39  2  0
 39 40  1  0
 40 41  2  0
 33  4  1  0
 41 37  1  0
 31 11  1  0
 27 17  1  0
 27 22  1  0
  1 42  1  0
  1 43  1  0
  1 44  1  0
  3 45  1  0
  3 46  1  0
  5 47  1  0
  6 48  1  0
  8 49  1  0
  8 50  1  0
  9 51  1  0
  9 52  1  0
 10 53  1  0
 16 54  1  0
 18 55  1  0
 19 56  1  0
 23 57  1  0
 24 58  1  0
 25 59  1  0
 26 60  1  0
 29 61  1  0
 29 62  1  0
 30 63  1  0
 30 64  1  0
 32 65  1  0
 33 66  1  0
 36 67  1  0
 36 68  1  0
 38 69  1  0
 41 70  1  0
M  END
>  <Energy>  (857) 
104.98272430094364

>  <compound_id>  (857) 
4400

>  <target_id>  (857) 
1

>  <reference_id>  (857) 
154

>  <inspiration_ids>  (857) 
[154, 186]

>  <energy_score>  (857) 
-8.924281758885513

>  <distance_score>  (857) 
1.7772422137507402

>  <path>  (857) 
/opt/xchem-fragalysis-2/maxwin/BulkDock/SCRATCH/505735/C4400-P154/C4400-P154.minimised.mol

>  <scratch_subdir>  (857) 
/opt/xchem-fragalysis-2/maxwin/BulkDock/SCRATCH/505735/C4400-P154

>  <fragmenstein_runtime>  (857) 
25.542774200439453

>  <fragmenstein_outcome>  (857) 
too moved

>  <fragmenstein_mode>  (857) 
expansion

>  <fragmenstein_error>  (857) 


$$$$
C4400-P186
     RDKit          3D

 70 74  0  0  0  0  0  0  0  0999 V2000
   -1.9483   -0.8875   33.4311 C   0  0  0  0  0  0  0  0  0  0  0  0
   -1.0213   -1.7296   32.6269 N   0  0  0  0  0  0  0  0  0  0  0  0
   -1.0664   -0.4978   31.6995 C   0  0  0  0  0  0  0  0  0  0  0  0
    0.1433   -0.3306   30.7763 C   0  0  0  0  0  0  0  0  0  0  0  0
    1.4587   -0.4422   31.2386 C   0  0  0  0  0  0  0  0  0  0  0  0
    2.5357   -0.0367   30.4328 C   0  0  0  0  0  0  0  0  0  0  0  0
    2.3306    0.5199   29.1580 C   0  0  0  0  0  0  0  0  0  0  0  0
    3.5087    1.1238   28.4034 C   0  0  0  0  0  0  0  0  0  0  0  0
    3.5064    1.1308   26.8539 C   0  0  0  0  0  0  0  0  0  0  0  0
    4.2825    0.0353   26.2688 N   0  0  0  0  0  0  0  0  0  0  0  0
    3.8780   -1.2316   26.4660 C   0  0  0  0  0  0  0  0  0  0  0  0
    4.5973   -2.3300   26.4272 N   0  0  0  0  0  0  0  0  0  0  0  0
    3.7427   -3.2946   26.9345 C   0  0  0  0  0  0  0  0  0  0  0  0
    4.1860   -4.6335   27.3270 C   0  0  0  0  0  0  0  0  0  0  0  0
    3.6623   -5.1795   28.2573 O   0  0  0  0  0  0  0  0  0  0  0  0
    5.2963   -5.0297   26.5120 N   0  0  0  0  0  0  0  0  0  0  0  0
    6.0271   -6.1796   26.4940 C   0  0  0  0  0  0  0  0  0  0  0  0
    6.1393   -6.8779   25.3566 C   0  0  0  0  0  0  0  0  0  0  0  0
    6.8083   -8.0682   25.2862 N   0  0  0  0  0  0  0  0  0  0  0  0
    7.4823   -8.6438   26.3334 C   0  0  0  0  0  0  0  0  0  0  0  0
    8.0831   -9.7057   26.2165 O   0  0  0  0  0  0  0  0  0  0  0  0
    7.4536   -7.8862   27.6138 C   0  0  0  0  0  0  0  0  0  0  0  0
    8.1815   -8.3698   28.7070 C   0  0  0  0  0  0  0  0  0  0  0  0
    8.2221   -7.6385   29.8917 C   0  0  0  0  0  0  0  0  0  0  0  0
    7.5390   -6.4290   29.9828 C   0  0  0  0  0  0  0  0  0  0  0  0
    6.7992   -5.9542   28.8954 C   0  0  0  0  0  0  0  0  0  0  0  0
    6.7301   -6.6803   27.6959 C   0  0  0  0  0  0  0  0  0  0  0  0
    2.4832   -2.7560   27.0706 C   0  0  0  0  0  0  0  0  0  0  0  0
    1.1663   -3.2611   27.4800 C   0  0  0  0  0  0  0  0  0  0  0  0
    0.1959   -3.1431   26.3950 N   0  0  0  0  0  0  0  0  0  0  0  0
    2.5699   -1.4269   26.7849 O   0  0  0  0  0  0  0  0  0  0  0  0
    1.0133    0.6290   28.7022 C   0  0  0  0  0  0  0  0  0  0  0  0
   -0.0617    0.1967   29.4898 C   0  0  0  0  0  0  0  0  0  0  0  0
   -1.2596   -2.9234   31.8757 C   0  0  0  0  0  0  0  0  0  0  0  0
   -2.2881   -3.5007   31.6289 O   0  0  0  0  0  0  0  0  0  0  0  0
    0.0689   -3.5406   31.4440 C   0  0  0  0  0  0  0  0  0  0  0  0
    0.0526   -4.9899   31.5528 N   0  0  0  0  0  0  0  0  0  0  0  0
    0.4883   -5.8729   30.6153 C   0  0  0  0  0  0  0  0  0  0  0  0
    0.2608   -7.0980   31.0283 N   0  0  0  0  0  0  0  0  0  0  0  0
   -0.2828   -7.0183   32.2891 N   0  0  0  0  0  0  0  0  0  0  0  0
   -0.3959   -5.7450   32.5948 C   0  0  0  0  0  0  0  0  0  0  0  0
   -1.4458   -0.0744   33.9747 H   0  0  0  0  0  0  0  0  0  0  0  0
   -2.8992   -0.6193   32.9440 H   0  0  0  0  0  0  0  0  0  0  0  0
   -2.2758   -1.5687   34.2303 H   0  0  0  0  0  0  0  0  0  0  0  0
   -1.0728    0.4984   32.1804 H   0  0  0  0  0  0  0  0  0  0  0  0
   -1.9518   -0.6012   31.0489 H   0  0  0  0  0  0  0  0  0  0  0  0
    1.6619   -0.7893   32.2498 H   0  0  0  0  0  0  0  0  0  0  0  0
    3.5461   -0.1083   30.8339 H   0  0  0  0  0  0  0  0  0  0  0  0
    3.5490    2.1717   28.7321 H   0  0  0  0  0  0  0  0  0  0  0  0
    4.4384    0.6582   28.7563 H   0  0  0  0  0  0  0  0  0  0  0  0
    2.5063    1.1886   26.4263 H   0  0  0  0  0  0  0  0  0  0  0  0
    4.0105    2.0539   26.5424 H   0  0  0  0  0  0  0  0  0  0  0  0
    4.4723    0.1891   25.2704 H   0  0  0  0  0  0  0  0  0  0  0  0
    5.4113   -4.3544   25.7573 H   0  0  0  0  0  0  0  0  0  0  0  0
    5.6472   -6.5869   24.4373 H   0  0  0  0  0  0  0  0  0  0  0  0
    6.7052   -8.6196   24.4311 H   0  0  0  0  0  0  0  0  0  0  0  0
    8.7213   -9.3101   28.6256 H   0  0  0  0  0  0  0  0  0  0  0  0
    8.7888   -8.0089   30.7412 H   0  0  0  0  0  0  0  0  0  0  0  0
    7.5808   -5.8499   30.9018 H   0  0  0  0  0  0  0  0  0  0  0  0
    6.3011   -4.9943   28.9964 H   0  0  0  0  0  0  0  0  0  0  0  0
    0.8059   -2.6937   28.3417 H   0  0  0  0  0  0  0  0  0  0  0  0
    1.2475   -4.3013   27.7908 H   0  0  0  0  0  0  0  0  0  0  0  0
   -0.0375   -2.1583   26.3050 H   0  0  0  0  0  0  0  0  0  0  0  0
   -0.6689   -3.6129   26.6811 H   0  0  0  0  0  0  0  0  0  0  0  0
    0.7933    1.0956   27.7454 H   0  0  0  0  0  0  0  0  0  0  0  0
   -1.0698    0.3467   29.1061 H   0  0  0  0  0  0  0  0  0  0  0  0
    0.8959   -3.2005   32.0741 H   0  0  0  0  0  0  0  0  0  0  0  0
    0.2575   -3.2793   30.4020 H   0  0  0  0  0  0  0  0  0  0  0  0
    0.9455   -5.5930   29.6780 H   0  0  0  0  0  0  0  0  0  0  0  0
   -0.8033   -5.3434   33.5137 H   0  0  0  0  0  0  0  0  0  0  0  0
  1  2  1  0
  2  3  1  0
  3  4  1  0
  4  5  2  0
  5  6  1  0
  6  7  2  0
  7  8  1  0
  8  9  1  0
  9 10  1  0
 10 11  1  0
 11 12  2  0
 12 13  1  0
 13 14  1  0
 14 15  2  0
 14 16  1  0
 16 17  1  0
 17 18  2  0
 18 19  1  0
 19 20  1  0
 20 21  2  0
 20 22  1  0
 22 23  2  0
 23 24  1  0
 24 25  2  0
 25 26  1  0
 26 27  2  0
 13 28  2  0
 28 29  1  0
 29 30  1  0
 28 31  1  0
  7 32  1  0
 32 33  2  0
  2 34  1  0
 34 35  2  0
 34 36  1  0
 36 37  1  0
 37 38  1  0
 38 39  2  0
 39 40  1  0
 40 41  2  0
 33  4  1  0
 41 37  1  0
 31 11  1  0
 27 17  1  0
 27 22  1  0
  1 42  1  0
  1 43  1  0
  1 44  1  0
  3 45  1  0
  3 46  1  0
  5 47  1  0
  6 48  1  0
  8 49  1  0
  8 50  1  0
  9 51  1  0
  9 52  1  0
 10 53  1  0
 16 54  1  0
 18 55  1  0
 19 56  1  0
 23 57  1  0
 24 58  1  0
 25 59  1  0
 26 60  1  0
 29 61  1  0
 29 62  1  0
 30 63  1  0
 30 64  1  0
 32 65  1  0
 33 66  1  0
 36 67  1  0
 36 68  1  0
 38 69  1  0
 41 70  1  0
M  END
>  <Energy>  (858) 
108.6590310371716

>  <compound_id>  (858) 
4400

>  <target_id>  (858) 
1

>  <reference_id>  (858) 
186

>  <inspiration_ids>  (858) 
[154, 186]

>  <energy_score>  (858) 
-5.247975022662672

>  <distance_score>  (858) 
1.529785123662156

>  <path>  (858) 
/opt/xchem-fragalysis-2/maxwin/BulkDock/SCRATCH/505735/C4400-P186/C4400-P186.minimised.mol

>  <scratch_subdir>  (858) 
/opt/xchem-fragalysis-2/maxwin/BulkDock/SCRATCH/505735/C4400-P186

>  <fragmenstein_runtime>  (858) 
17.901774644851685

>  <fragmenstein_outcome>  (858) 
too moved

>  <fragmenstein_mode>  (858) 
expansion

>  <fragmenstein_error>  (858) 


$$$$
C4401-P154
     RDKit          3D

 79 84  0  0  0  0  0  0  0  0999 V2000
    3.7329   -5.1325   26.1830 O   0  0  0  0  0  0  0  0  0  0  0  0
    4.6793   -4.6439   26.7260 C   0  0  0  0  0  0  0  0  0  0  0  0
    5.9402   -5.2067   27.0896 N   0  0  0  0  0  0  0  0  0  0  0  0
    6.4740   -6.4372   26.8471 C   0  0  0  0  0  0  0  0  0  0  0  0
    6.0670   -7.1891   25.8124 C   0  0  0  0  0  0  0  0  0  0  0  0
    6.7093   -8.3445   25.4530 N   0  0  0  0  0  0  0  0  0  0  0  0
    7.8391   -8.8248   26.0675 C   0  0  0  0  0  0  0  0  0  0  0  0
    8.4912   -9.7607   25.6194 O   0  0  0  0  0  0  0  0  0  0  0  0
    8.2434   -8.1225   27.3142 C   0  0  0  0  0  0  0  0  0  0  0  0
    9.2632   -8.6615   28.1083 C   0  0  0  0  0  0  0  0  0  0  0  0
    9.6214   -8.0338   29.2997 C   0  0  0  0  0  0  0  0  0  0  0  0
    8.9612   -6.8740   29.6984 C   0  0  0  0  0  0  0  0  0  0  0  0
    7.9465   -6.3327   28.9032 C   0  0  0  0  0  0  0  0  0  0  0  0
    7.5775   -6.9429   27.6918 C   0  0  0  0  0  0  0  0  0  0  0  0
    4.6540   -3.2348   27.1301 C   0  0  0  0  0  0  0  0  0  0  0  0
    5.6830   -2.6110   27.8292 N   0  0  0  0  0  0  0  0  0  0  0  0
    5.2697   -1.3667   27.9233 C   0  0  0  0  0  0  0  0  0  0  0  0
    4.0305   -1.1235   27.4225 O   0  0  0  0  0  0  0  0  0  0  0  0
    3.6405   -2.3281   26.9008 C   0  0  0  0  0  0  0  0  0  0  0  0
    2.3260   -2.3917   26.2282 C   0  0  0  0  0  0  0  0  0  0  0  0
    1.4753   -3.4312   26.7576 N   0  0  0  0  0  0  0  0  0  0  0  0
    0.6113   -3.1045   27.8655 C   0  0  0  0  0  0  0  0  0  0  0  0
    0.8741   -3.9418   29.1211 C   0  0  0  0  0  0  0  0  0  0  0  0
    2.0262   -3.4686   30.0223 C   0  0  0  0  0  0  0  0  0  0  0  0
    2.3777   -4.5510   31.0361 C   0  0  0  0  0  0  0  0  0  0  0  0
    2.8338   -3.9534   32.3634 C   0  0  0  0  0  0  0  0  0  0  0  0
    4.3429   -4.0068   32.5520 C   0  0  0  0  0  0  0  0  0  0  0  0
    4.8771   -4.5453   33.7313 C   0  0  0  0  0  0  0  0  0  0  0  0
    6.2593   -4.6082   33.9249 C   0  0  0  0  0  0  0  0  0  0  0  0
    7.1389   -4.1332   32.9450 C   0  0  0  0  0  0  0  0  0  0  0  0
    8.6254   -4.1838   33.1737 C   0  0  0  0  0  0  0  0  0  0  0  0
    9.0265   -3.1585   34.0711 O   0  0  0  0  0  0  0  0  0  0  0  0
    6.6114   -3.5762   31.7761 C   0  0  0  0  0  0  0  0  0  0  0  0
    5.2293   -3.5162   31.5810 C   0  0  0  0  0  0  0  0  0  0  0  0
    2.3169   -2.5029   32.5764 C   0  0  0  0  0  0  0  0  0  0  0  0
    0.9716   -2.0793   31.9938 N   0  0  0  0  0  0  0  0  0  0  0  0
   -0.0738   -2.9395   32.4803 C   0  0  0  0  0  0  0  0  0  0  0  0
   -0.5214   -3.9624   32.0274 O   0  0  0  0  0  0  0  0  0  0  0  0
   -0.7011   -2.3073   33.7099 C   0  0  0  0  0  0  0  0  0  0  0  0
   -1.7272   -1.3876   33.2813 N   0  0  0  0  0  0  0  0  0  0  0  0
   -3.0382   -1.6672   33.0614 C   0  0  0  0  0  0  0  0  0  0  0  0
   -3.6491   -0.5780   32.6534 N   0  0  0  0  0  0  0  0  0  0  0  0
   -2.7125    0.4255   32.5888 N   0  0  0  0  0  0  0  0  0  0  0  0
   -1.5575   -0.0791   32.9536 C   0  0  0  0  0  0  0  0  0  0  0  0
    1.7607   -2.1188   30.7120 C   0  0  0  0  0  0  0  0  0  0  0  0
    6.4719   -4.5161   27.6132 H   0  0  0  0  0  0  0  0  0  0  0  0
    5.2680   -6.8936   25.1361 H   0  0  0  0  0  0  0  0  0  0  0  0
    6.4026   -8.8134   24.5916 H   0  0  0  0  0  0  0  0  0  0  0  0
    9.7665   -9.5761   27.8010 H   0  0  0  0  0  0  0  0  0  0  0  0
   10.4126   -8.4539   29.9158 H   0  0  0  0  0  0  0  0  0  0  0  0
    9.2346   -6.3911   30.6328 H   0  0  0  0  0  0  0  0  0  0  0  0
    7.4405   -5.4417   29.2620 H   0  0  0  0  0  0  0  0  0  0  0  0
    5.7855   -0.5233   28.3607 H   0  0  0  0  0  0  0  0  0  0  0  0
    2.4849   -2.5713   25.1590 H   0  0  0  0  0  0  0  0  0  0  0  0
    1.8328   -1.4223   26.3137 H   0  0  0  0  0  0  0  0  0  0  0  0
    1.8805   -4.3658   26.7326 H   0  0  0  0  0  0  0  0  0  0  0  0
   -0.4084   -3.3378   27.5447 H   0  0  0  0  0  0  0  0  0  0  0  0
    0.6028   -2.0330   28.0841 H   0  0  0  0  0  0  0  0  0  0  0  0
    1.0706   -4.9801   28.8355 H   0  0  0  0  0  0  0  0  0  0  0  0
   -0.0584   -3.9664   29.6923 H   0  0  0  0  0  0  0  0  0  0  0  0
    2.8993   -3.3276   29.3805 H   0  0  0  0  0  0  0  0  0  0  0  0
    3.1147   -5.2389   30.6066 H   0  0  0  0  0  0  0  0  0  0  0  0
    1.4983   -5.1780   31.2307 H   0  0  0  0  0  0  0  0  0  0  0  0
    2.3852   -4.5842   33.1448 H   0  0  0  0  0  0  0  0  0  0  0  0
    4.2240   -4.9281   34.5129 H   0  0  0  0  0  0  0  0  0  0  0  0
    6.6514   -5.0298   34.8493 H   0  0  0  0  0  0  0  0  0  0  0  0
    8.9185   -5.1533   33.5902 H   0  0  0  0  0  0  0  0  0  0  0  0
    9.1723   -4.0524   32.2341 H   0  0  0  0  0  0  0  0  0  0  0  0
    8.3110   -2.5016   34.1118 H   0  0  0  0  0  0  0  0  0  0  0  0
    7.2723   -3.1845   31.0044 H   0  0  0  0  0  0  0  0  0  0  0  0
    4.8622   -3.0819   30.6546 H   0  0  0  0  0  0  0  0  0  0  0  0
    3.0891   -1.7185   32.4795 H   0  0  0  0  0  0  0  0  0  0  0  0
    2.1419   -2.4482   33.6644 H   0  0  0  0  0  0  0  0  0  0  0  0
    0.0293   -1.7571   34.3106 H   0  0  0  0  0  0  0  0  0  0  0  0
   -1.1503   -3.0787   34.3417 H   0  0  0  0  0  0  0  0  0  0  0  0
   -3.4869   -2.6391   33.2126 H   0  0  0  0  0  0  0  0  0  0  0  0
   -0.6112    0.4427   32.9910 H   0  0  0  0  0  0  0  0  0  0  0  0
    2.6313   -1.4402   30.6709 H   0  0  0  0  0  0  0  0  0  0  0  0
    1.0759   -1.5681   30.0542 H   0  0  0  0  0  0  0  0  0  0  0  0
  1  2  2  0
  2  3  1  0
  3  4  1  0
  4  5  2  0
  5  6  1  0
  6  7  1  0
  7  8  2  0
  7  9  1  0
  9 10  2  0
 10 11  1  0
 11 12  2  0
 12 13  1  0
 13 14  2  0
  2 15  1  0
 15 16  1  0
 16 17  2  0
 17 18  1  0
 18 19  1  0
 19 20  1  0
 20 21  1  0
 21 22  1  0
 22 23  1  0
 23 24  1  0
 24 25  1  0
 25 26  1  0
 26 27  1  0
 27 28  2  0
 28 29  1  0
 29 30  2  0
 30 31  1  0
 31 32  1  0
 30 33  1  0
 33 34  2  0
 26 35  1  0
 35 36  1  0
 36 37  1  0
 37 38  2  0
 37 39  1  0
 39 40  1  0
 40 41  1  0
 41 42  2  0
 42 43  1  0
 43 44  2  0
 36 45  1  0
 14  4  1  0
 19 15  2  0
 45 24  1  0
 14  9  1  0
 34 27  1  0
 44 40  1  0
  3 46  1  0
  5 47  1  0
  6 48  1  0
 10 49  1  0
 11 50  1  0
 12 51  1  0
 13 52  1  0
 17 53  1  0
 20 54  1  0
 20 55  1  0
 21 56  1  0
 22 57  1  0
 22 58  1  0
 23 59  1  0
 23 60  1  0
 24 61  1  0
 25 62  1  0
 25 63  1  0
 26 64  1  0
 28 65  1  0
 29 66  1  0
 31 67  1  0
 31 68  1  0
 32 69  1  0
 33 70  1  0
 34 71  1  0
 35 72  1  0
 35 73  1  0
 39 74  1  0
 39 75  1  0
 41 76  1  0
 44 77  1  0
 45 78  1  0
 45 79  1  0
M  END
>  <Energy>  (859) 
163.98585457946632

>  <compound_id>  (859) 
4401

>  <target_id>  (859) 
1

>  <reference_id>  (859) 
154

>  <inspiration_ids>  (859) 
[154, 187]

>  <energy_score>  (859) 
-16.587906429432905

>  <distance_score>  (859) 
2.2453492763757

>  <path>  (859) 
/opt/xchem-fragalysis-2/maxwin/BulkDock/SCRATCH/505735/C4401-P154/C4401-P154.minimised.mol

>  <scratch_subdir>  (859) 
/opt/xchem-fragalysis-2/maxwin/BulkDock/SCRATCH/505735/C4401-P154

>  <fragmenstein_runtime>  (859) 
27.932995080947876

>  <fragmenstein_outcome>  (859) 
too moved

>  <fragmenstein_mode>  (859) 
expansion

>  <fragmenstein_error>  (859) 


$$$$
C4401-P187
     RDKit          3D

 79 84  0  0  0  0  0  0  0  0999 V2000
    4.6932   -6.8928   27.8856 O   0  0  0  0  0  0  0  0  0  0  0  0
    5.3448   -6.2545   27.1080 C   0  0  0  0  0  0  0  0  0  0  0  0
    6.6483   -6.4789   26.5778 N   0  0  0  0  0  0  0  0  0  0  0  0
    7.4994   -7.5199   26.7245 C   0  0  0  0  0  0  0  0  0  0  0  0
    7.8915   -8.1954   25.6375 C   0  0  0  0  0  0  0  0  0  0  0  0
    8.7343   -9.2659   25.7194 N   0  0  0  0  0  0  0  0  0  0  0  0
    9.2885   -9.7189   26.8931 C   0  0  0  0  0  0  0  0  0  0  0  0
   10.0552  -10.6732   26.8953 O   0  0  0  0  0  0  0  0  0  0  0  0
    8.9178   -8.9821   28.1306 C   0  0  0  0  0  0  0  0  0  0  0  0
    9.4902   -9.3505   29.3531 C   0  0  0  0  0  0  0  0  0  0  0  0
    9.1629   -8.6539   30.5135 C   0  0  0  0  0  0  0  0  0  0  0  0
    8.2811   -7.5801   30.4501 C   0  0  0  0  0  0  0  0  0  0  0  0
    7.7159   -7.2054   29.2278 C   0  0  0  0  0  0  0  0  0  0  0  0
    8.0145   -7.9093   28.0501 C   0  0  0  0  0  0  0  0  0  0  0  0
    4.8397   -5.0013   26.5909 C   0  0  0  0  0  0  0  0  0  0  0  0
    5.6159   -3.8619   26.4650 N   0  0  0  0  0  0  0  0  0  0  0  0
    4.7599   -2.9647   26.0444 C   0  0  0  0  0  0  0  0  0  0  0  0
    3.4956   -3.4351   25.8820 O   0  0  0  0  0  0  0  0  0  0  0  0
    3.5505   -4.7550   26.1770 C   0  0  0  0  0  0  0  0  0  0  0  0
    2.3466   -5.6396   26.0751 C   0  0  0  0  0  0  0  0  0  0  0  0
    1.1408   -5.2344   25.1445 N   0  0  0  0  0  0  0  0  0  0  0  0
   -0.5723   -5.0261   25.5224 C   0  0  0  0  0  0  0  0  0  0  0  0
   -0.6239   -4.2055   27.3687 C   0  0  0  0  0  0  0  0  0  0  0  0
    0.6719   -3.7453   28.2188 C   0  0  0  0  0  0  0  0  0  0  0  0
    0.9838   -4.5969   29.4582 C   0  0  0  0  0  0  0  0  0  0  0  0
    1.5520   -3.7634   30.6172 C   0  0  0  0  0  0  0  0  0  0  0  0
    3.0328   -3.9424   30.9061 C   0  0  0  0  0  0  0  0  0  0  0  0
    3.4663   -4.1469   32.2246 C   0  0  0  0  0  0  0  0  0  0  0  0
    4.8294   -4.1773   32.5308 C   0  0  0  0  0  0  0  0  0  0  0  0
    5.7896   -4.0086   31.5256 C   0  0  0  0  0  0  0  0  0  0  0  0
    7.2531   -3.9955   31.8738 C   0  0  0  0  0  0  0  0  0  0  0  0
    7.5803   -2.8072   32.5801 O   0  0  0  0  0  0  0  0  0  0  0  0
    5.3613   -3.8065   30.2101 C   0  0  0  0  0  0  0  0  0  0  0  0
    3.9976   -3.7731   29.9064 C   0  0  0  0  0  0  0  0  0  0  0  0
    1.2865   -2.2449   30.4482 C   0  0  0  0  0  0  0  0  0  0  0  0
   -0.0568   -1.8187   29.9025 N   0  0  0  0  0  0  0  0  0  0  0  0
   -1.1050   -2.4061   30.6652 C   0  0  0  0  0  0  0  0  0  0  0  0
   -1.6932   -3.4467   30.5169 O   0  0  0  0  0  0  0  0  0  0  0  0
   -1.5816   -1.4733   31.7771 C   0  0  0  0  0  0  0  0  0  0  0  0
   -0.8528   -0.2355   31.9372 N   0  0  0  0  0  0  0  0  0  0  0  0
   -0.5847    0.7004   30.9884 C   0  0  0  0  0  0  0  0  0  0  0  0
    0.1304    1.6628   31.5204 N   0  0  0  0  0  0  0  0  0  0  0  0
    0.2984    1.3708   32.8518 N   0  0  0  0  0  0  0  0  0  0  0  0
   -0.2953    0.2253   33.0874 C   0  0  0  0  0  0  0  0  0  0  0  0
    0.5772   -2.2463   28.6092 C   0  0  0  0  0  0  0  0  0  0  0  0
    6.8479   -5.7653   25.8718 H   0  0  0  0  0  0  0  0  0  0  0  0
    7.5017   -7.9582   24.6530 H   0  0  0  0  0  0  0  0  0  0  0  0
    8.9378   -9.8335   24.9079 H   0  0  0  0  0  0  0  0  0  0  0  0
   10.1877  -10.1846   29.4062 H   0  0  0  0  0  0  0  0  0  0  0  0
    9.5998   -8.9544   31.4629 H   0  0  0  0  0  0  0  0  0  0  0  0
    8.0316   -7.0353   31.3559 H   0  0  0  0  0  0  0  0  0  0  0  0
    7.0472   -6.3506   29.2146 H   0  0  0  0  0  0  0  0  0  0  0  0
    4.9289   -1.9223   25.8066 H   0  0  0  0  0  0  0  0  0  0  0  0
    2.0560   -5.8056   27.1084 H   0  0  0  0  0  0  0  0  0  0  0  0
    2.7508   -6.6026   25.7318 H   0  0  0  0  0  0  0  0  0  0  0  0
    1.0261   -5.6051   24.1952 H   0  0  0  0  0  0  0  0  0  0  0  0
   -0.8150   -4.7002   24.4532 H   0  0  0  0  0  0  0  0  0  0  0  0
   -1.5305   -5.6321   25.4555 H   0  0  0  0  0  0  0  0  0  0  0  0
   -1.2103   -4.8474   28.0430 H   0  0  0  0  0  0  0  0  0  0  0  0
   -1.2630   -3.3149   27.4269 H   0  0  0  0  0  0  0  0  0  0  0  0
    1.5559   -3.7844   27.5952 H   0  0  0  0  0  0  0  0  0  0  0  0
    1.6500   -5.4305   29.2117 H   0  0  0  0  0  0  0  0  0  0  0  0
    0.0627   -5.0752   29.8111 H   0  0  0  0  0  0  0  0  0  0  0  0
    1.0098   -4.1028   31.5123 H   0  0  0  0  0  0  0  0  0  0  0  0
    2.7480   -4.2542   33.0346 H   0  0  0  0  0  0  0  0  0  0  0  0
    5.1443   -4.3140   33.5640 H   0  0  0  0  0  0  0  0  0  0  0  0
    7.5052   -4.8568   32.5004 H   0  0  0  0  0  0  0  0  0  0  0  0
    7.8761   -4.0447   30.9748 H   0  0  0  0  0  0  0  0  0  0  0  0
    6.9651   -2.1140   32.2839 H   0  0  0  0  0  0  0  0  0  0  0  0
    6.0845   -3.6498   29.4107 H   0  0  0  0  0  0  0  0  0  0  0  0
    3.6991   -3.5662   28.8836 H   0  0  0  0  0  0  0  0  0  0  0  0
    2.1374   -1.6486   30.0720 H   0  0  0  0  0  0  0  0  0  0  0  0
    1.2645   -1.8770   31.4878 H   0  0  0  0  0  0  0  0  0  0  0  0
   -1.5307   -2.0221   32.7239 H   0  0  0  0  0  0  0  0  0  0  0  0
   -2.6234   -1.1991   31.5786 H   0  0  0  0  0  0  0  0  0  0  0  0
   -0.9089    0.6474   29.9567 H   0  0  0  0  0  0  0  0  0  0  0  0
   -0.3380   -0.2850   34.0394 H   0  0  0  0  0  0  0  0  0  0  0  0
    1.4901   -1.6884   28.3290 H   0  0  0  0  0  0  0  0  0  0  0  0
   -0.1141   -1.7718   27.8997 H   0  0  0  0  0  0  0  0  0  0  0  0
  1  2  2  0
  2  3  1  0
  3  4  1  0
  4  5  2  0
  5  6  1  0
  6  7  1  0
  7  8  2  0
  7  9  1  0
  9 10  2  0
 10 11  1  0
 11 12  2  0
 12 13  1  0
 13 14  2  0
  2 15  1  0
 15 16  1  0
 16 17  2  0
 17 18  1  0
 18 19  1  0
 19 20  1  0
 20 21  1  0
 21 22  1  0
 22 23  1  0
 23 24  1  0
 24 25  1  0
 25 26  1  0
 26 27  1  0
 27 28  2  0
 28 29  1  0
 29 30  2  0
 30 31  1  0
 31 32  1  0
 30 33  1  0
 33 34  2  0
 26 35  1  0
 35 36  1  0
 36 37  1  0
 37 38  2  0
 37 39  1  0
 39 40  1  0
 40 41  1  0
 41 42  2  0
 42 43  1  0
 43 44  2  0
 36 45  1  0
 14  4  1  0
 19 15  2  0
 45 24  1  0
 14  9  1  0
 34 27  1  0
 44 40  1  0
  3 46  1  0
  5 47  1  0
  6 48  1  0
 10 49  1  0
 11 50  1  0
 12 51  1  0
 13 52  1  0
 17 53  1  0
 20 54  1  0
 20 55  1  0
 21 56  1  0
 22 57  1  0
 22 58  1  0
 23 59  1  0
 23 60  1  0
 24 61  1  0
 25 62  1  0
 25 63  1  0
 26 64  1  0
 28 65  1  0
 29 66  1  0
 31 67  1  0
 31 68  1  0
 32 69  1  0
 33 70  1  0
 34 71  1  0
 35 72  1  0
 35 73  1  0
 39 74  1  0
 39 75  1  0
 41 76  1  0
 44 77  1  0
 45 78  1  0
 45 79  1  0
M  END
>  <Energy>  (860) 
339.67352144526461

>  <compound_id>  (860) 
4401

>  <target_id>  (860) 
1

>  <reference_id>  (860) 
187

>  <inspiration_ids>  (860) 
[154, 187]

>  <energy_score>  (860) 
159.09976043637243

>  <distance_score>  (860) 
2.2915759109786102

>  <path>  (860) 
/opt/xchem-fragalysis-2/maxwin/BulkDock/SCRATCH/505735/C4401-P187/C4401-P187.minimised.mol

>  <scratch_subdir>  (860) 
/opt/xchem-fragalysis-2/maxwin/BulkDock/SCRATCH/505735/C4401-P187

>  <fragmenstein_runtime>  (860) 
29.203463792800903

>  <fragmenstein_outcome>  (860) 
too moved

>  <fragmenstein_mode>  (860) 
expansion

>  <fragmenstein_error>  (860) 


$$$$
C4403-P154
     RDKit          3D

 79 85  0  0  0  0  0  0  0  0999 V2000
    1.8939   -2.9687   24.1698 N   0  0  0  0  0  0  0  0  0  0  0  0
    1.8404   -3.0279   25.6071 C   0  0  0  0  0  0  0  0  0  0  0  0
    3.0036   -2.3616   26.1965 C   0  0  0  0  0  0  0  0  0  0  0  0
    3.4065   -1.1494   25.7248 O   0  0  0  0  0  0  0  0  0  0  0  0
    4.6006   -0.9486   26.3404 C   0  0  0  0  0  0  0  0  0  0  0  0
    4.9612   -1.8931   27.1813 N   0  0  0  0  0  0  0  0  0  0  0  0
    3.8996   -2.7700   27.1418 C   0  0  0  0  0  0  0  0  0  0  0  0
    3.8947   -4.0941   27.7032 C   0  0  0  0  0  0  0  0  0  0  0  0
    3.0378   -4.5695   28.4307 N   0  0  0  0  0  0  0  0  0  0  0  0
    1.6629   -4.0212   28.6931 C   0  0  0  0  0  0  0  0  0  0  0  0
    1.4227   -2.5538   29.1167 C   0  0  0  0  0  0  0  0  0  0  0  0
    0.6708   -2.2150   30.4150 C   0  0  0  0  0  0  0  0  0  0  0  0
    1.2733   -2.8394   31.6673 C   0  0  0  0  0  0  0  0  0  0  0  0
    0.8613   -4.2355   31.5944 N   0  0  0  0  0  0  0  0  0  0  0  0
    1.7351   -5.2169   32.2125 C   0  0  0  0  0  0  0  0  0  0  0  0
    0.8438   -6.2494   32.7964 C   0  0  0  0  0  0  0  0  0  0  0  0
    0.6807   -6.3347   34.1308 C   0  0  0  0  0  0  0  0  0  0  0  0
   -0.3968   -7.1386   34.6544 C   0  0  0  0  0  0  0  0  0  0  0  0
   -1.2502   -7.7701   33.8319 C   0  0  0  0  0  0  0  0  0  0  0  0
   -1.0513   -7.7466   32.4292 C   0  0  0  0  0  0  0  0  0  0  0  0
   -1.7028   -8.2668   31.4120 N   0  0  0  0  0  0  0  0  0  0  0  0
   -1.0582   -7.8845   30.2598 N   0  0  0  0  0  0  0  0  0  0  0  0
   -0.0313   -7.1483   30.6064 C   0  0  0  0  0  0  0  0  0  0  0  0
    0.0111   -7.0020   31.9632 N   0  0  0  0  0  0  0  0  0  0  0  0
    2.7382   -2.5637   31.8515 C   0  0  0  0  0  0  0  0  0  0  0  0
    3.2901   -1.8308   32.7973 N   0  0  0  0  0  0  0  0  0  0  0  0
    4.6475   -1.9729   32.5919 C   0  0  0  0  0  0  0  0  0  0  0  0
    5.6397   -1.3126   33.4347 C   0  0  0  0  0  0  0  0  0  0  0  0
    5.2347   -0.5317   34.5271 C   0  0  0  0  0  0  0  0  0  0  0  0
    6.1795    0.1005   35.3400 C   0  0  0  0  0  0  0  0  0  0  0  0
    7.5391   -0.0406   35.0684 C   0  0  0  0  0  0  0  0  0  0  0  0
    7.9561   -0.8118   33.9851 C   0  0  0  0  0  0  0  0  0  0  0  0
    7.0116   -1.4444   33.1724 C   0  0  0  0  0  0  0  0  0  0  0  0
    4.9505   -2.7908   31.5722 N   0  0  0  0  0  0  0  0  0  0  0  0
    3.7397   -3.1188   31.1037 N   0  0  0  0  0  0  0  0  0  0  0  0
    5.1904   -4.7612   27.0558 N   0  0  0  0  0  0  0  0  0  0  0  0
    5.6293   -6.0619   27.0731 C   0  0  0  0  0  0  0  0  0  0  0  0
    5.5788   -6.8109   25.9511 C   0  0  0  0  0  0  0  0  0  0  0  0
    6.2769   -7.9791   25.7767 N   0  0  0  0  0  0  0  0  0  0  0  0
    7.1680   -8.4826   26.6954 C   0  0  0  0  0  0  0  0  0  0  0  0
    7.8136   -9.5063   26.4988 O   0  0  0  0  0  0  0  0  0  0  0  0
    7.2982   -7.7009   27.9565 C   0  0  0  0  0  0  0  0  0  0  0  0
    8.1953   -8.1382   28.9369 C   0  0  0  0  0  0  0  0  0  0  0  0
    8.3689   -7.3901   30.0995 C   0  0  0  0  0  0  0  0  0  0  0  0
    7.6541   -6.2071   30.2786 C   0  0  0  0  0  0  0  0  0  0  0  0
    6.7523   -5.7728   29.3038 C   0  0  0  0  0  0  0  0  0  0  0  0
    6.5519   -6.5169   28.1329 C   0  0  0  0  0  0  0  0  0  0  0  0
    2.4374   -2.1544   23.8834 H   0  0  0  0  0  0  0  0  0  0  0  0
    0.9444   -2.7578   23.8301 H   0  0  0  0  0  0  0  0  0  0  0  0
    1.8250   -4.0889   25.8596 H   0  0  0  0  0  0  0  0  0  0  0  0
    0.9462   -2.5811   26.0330 H   0  0  0  0  0  0  0  0  0  0  0  0
    5.1374   -0.0522   26.0703 H   0  0  0  0  0  0  0  0  0  0  0  0
    1.0723   -4.1811   27.7931 H   0  0  0  0  0  0  0  0  0  0  0  0
    1.1964   -4.7091   29.3864 H   0  0  0  0  0  0  0  0  0  0  0  0
    0.8475   -2.0731   28.3142 H   0  0  0  0  0  0  0  0  0  0  0  0
    2.3718   -2.0097   29.1332 H   0  0  0  0  0  0  0  0  0  0  0  0
   -0.3865   -2.4936   30.3050 H   0  0  0  0  0  0  0  0  0  0  0  0
    0.6771   -1.1220   30.5262 H   0  0  0  0  0  0  0  0  0  0  0  0
    0.7685   -2.3986   32.5383 H   0  0  0  0  0  0  0  0  0  0  0  0
   -0.0631   -4.2665   32.0318 H   0  0  0  0  0  0  0  0  0  0  0  0
    2.3483   -4.7885   33.0140 H   0  0  0  0  0  0  0  0  0  0  0  0
    2.4155   -5.6553   31.4767 H   0  0  0  0  0  0  0  0  0  0  0  0
    1.2442   -5.7263   34.8336 H   0  0  0  0  0  0  0  0  0  0  0  0
   -0.5453   -7.1627   35.7303 H   0  0  0  0  0  0  0  0  0  0  0  0
   -2.0890   -8.3191   34.2345 H   0  0  0  0  0  0  0  0  0  0  0  0
    0.6922   -6.7129   29.9389 H   0  0  0  0  0  0  0  0  0  0  0  0
    4.1765   -0.4118   34.7507 H   0  0  0  0  0  0  0  0  0  0  0  0
    5.8521    0.7025   36.1836 H   0  0  0  0  0  0  0  0  0  0  0  0
    8.2741    0.4517   35.7001 H   0  0  0  0  0  0  0  0  0  0  0  0
    9.0157   -0.9214   33.7694 H   0  0  0  0  0  0  0  0  0  0  0  0
    7.3524   -2.0403   32.3279 H   0  0  0  0  0  0  0  0  0  0  0  0
    3.6651   -3.7482   30.3094 H   0  0  0  0  0  0  0  0  0  0  0  0
    5.6413   -4.0915   26.4310 H   0  0  0  0  0  0  0  0  0  0  0  0
    5.0161   -6.4921   25.0778 H   0  0  0  0  0  0  0  0  0  0  0  0
    6.1931   -8.4763   24.8831 H   0  0  0  0  0  0  0  0  0  0  0  0
    8.7672   -9.0503   28.7816 H   0  0  0  0  0  0  0  0  0  0  0  0
    9.0739   -7.7192   30.8584 H   0  0  0  0  0  0  0  0  0  0  0  0
    7.8013   -5.6122   31.1776 H   0  0  0  0  0  0  0  0  0  0  0  0
    6.2237   -4.8365   29.4690 H   0  0  0  0  0  0  0  0  0  0  0  0
  1  2  1  0
  2  3  1  0
  3  4  1  0
  4  5  1  0
  5  6  2  0
  6  7  1  0
  7  8  1  0
  8  9  2  3
  9 10  1  0
 10 11  1  0
 11 12  1  0
 12 13  1  0
 13 14  1  0
 14 15  1  0
 15 16  1  0
 16 17  2  0
 17 18  1  0
 18 19  2  0
 19 20  1  0
 20 21  2  0
 21 22  1  0
 22 23  2  0
 23 24  1  0
 13 25  1  0
 25 26  2  0
 26 27  1  0
 27 28  1  0
 28 29  2  0
 29 30  1  0
 30 31  2  0
 31 32  1  0
 32 33  2  0
 27 34  2  0
 34 35  1  0
  8 36  1  0
 36 37  1  0
 37 38  2  0
 38 39  1  0
 39 40  1  0
 40 41  2  0
 40 42  1  0
 42 43  2  0
 43 44  1  0
 44 45  2  0
 45 46  1  0
 46 47  2  0
  7  3  2  0
 24 16  1  0
 35 25  1  0
 47 37  1  0
 24 20  1  0
 33 28  1  0
 47 42  1  0
  1 48  1  0
  1 49  1  0
  2 50  1  0
  2 51  1  0
  5 52  1  0
 10 53  1  0
 10 54  1  0
 11 55  1  0
 11 56  1  0
 12 57  1  0
 12 58  1  0
 13 59  1  0
 14 60  1  0
 15 61  1  0
 15 62  1  0
 17 63  1  0
 18 64  1  0
 19 65  1  0
 23 66  1  0
 29 67  1  0
 30 68  1  0
 31 69  1  0
 32 70  1  0
 33 71  1  0
 35 72  1  0
 36 73  1  0
 38 74  1  0
 39 75  1  0
 43 76  1  0
 44 77  1  0
 45 78  1  0
 46 79  1  0
M  END
>  <Energy>  (861) 
161.94284906725528

>  <compound_id>  (861) 
4403

>  <target_id>  (861) 
1

>  <reference_id>  (861) 
154

>  <inspiration_ids>  (861) 
[154, 189]

>  <energy_score>  (861) 
-20.607140091958286

>  <distance_score>  (861) 
1.4308281293623244

>  <path>  (861) 
/opt/xchem-fragalysis-2/maxwin/BulkDock/SCRATCH/505735/C4403-P154/C4403-P154.minimised.mol

>  <scratch_subdir>  (861) 
/opt/xchem-fragalysis-2/maxwin/BulkDock/SCRATCH/505735/C4403-P154

>  <fragmenstein_runtime>  (861) 
45.05330944061279

>  <fragmenstein_outcome>  (861) 
too moved

>  <fragmenstein_mode>  (861) 
expansion

>  <fragmenstein_error>  (861) 


$$$$
C4403-P189
     RDKit          3D

 79 85  0  0  0  0  0  0  0  0999 V2000
    3.7174    0.1831   25.9892 N   0  0  0  0  0  0  0  0  0  0  0  0
    4.6075   -0.8447   26.4930 C   0  0  0  0  0  0  0  0  0  0  0  0
    4.6139   -0.8140   27.9694 C   0  0  0  0  0  0  0  0  0  0  0  0
    5.0568    0.3255   28.5854 O   0  0  0  0  0  0  0  0  0  0  0  0
    4.9845    0.0351   29.9103 C   0  0  0  0  0  0  0  0  0  0  0  0
    4.5615   -1.1782   30.1982 N   0  0  0  0  0  0  0  0  0  0  0  0
    4.2919   -1.7155   28.9587 C   0  0  0  0  0  0  0  0  0  0  0  0
    3.8928   -3.0953   28.7666 C   0  0  0  0  0  0  0  0  0  0  0  0
    2.6926   -3.4397   28.6694 N   0  0  0  0  0  0  0  0  0  0  0  0
    1.5667   -2.4834   28.5636 C   0  0  0  0  0  0  0  0  0  0  0  0
    1.1802   -1.6006   29.7530 C   0  0  0  0  0  0  0  0  0  0  0  0
    0.2200   -2.1825   30.7925 C   0  0  0  0  0  0  0  0  0  0  0  0
    0.8132   -3.1309   31.8379 C   0  0  0  0  0  0  0  0  0  0  0  0
    1.3990   -4.2949   31.1751 N   0  0  0  0  0  0  0  0  0  0  0  0
    1.8935   -5.3090   32.0845 C   0  0  0  0  0  0  0  0  0  0  0  0
    0.8035   -6.0753   32.7635 C   0  0  0  0  0  0  0  0  0  0  0  0
    0.6280   -6.0649   34.1014 C   0  0  0  0  0  0  0  0  0  0  0  0
   -0.4472   -6.8464   34.6868 C   0  0  0  0  0  0  0  0  0  0  0  0
   -1.2622   -7.6012   33.9273 C   0  0  0  0  0  0  0  0  0  0  0  0
   -1.0819   -7.6388   32.5196 C   0  0  0  0  0  0  0  0  0  0  0  0
   -1.6916   -8.2814   31.5434 N   0  0  0  0  0  0  0  0  0  0  0  0
   -1.0968   -7.9178   30.3580 N   0  0  0  0  0  0  0  0  0  0  0  0
   -0.1469   -7.0584   30.6432 C   0  0  0  0  0  0  0  0  0  0  0  0
   -0.0666   -6.8588   31.9940 N   0  0  0  0  0  0  0  0  0  0  0  0
    1.7244   -2.4559   32.8260 C   0  0  0  0  0  0  0  0  0  0  0  0
    1.5282   -2.3694   34.1269 N   0  0  0  0  0  0  0  0  0  0  0  0
    2.6559   -1.7422   34.6062 C   0  0  0  0  0  0  0  0  0  0  0  0
    2.8412   -1.4516   36.0245 C   0  0  0  0  0  0  0  0  0  0  0  0
    1.8399   -1.7806   36.9503 C   0  0  0  0  0  0  0  0  0  0  0  0
    2.0108   -1.5105   38.3106 C   0  0  0  0  0  0  0  0  0  0  0  0
    3.1846   -0.9083   38.7598 C   0  0  0  0  0  0  0  0  0  0  0  0
    4.1875   -0.5749   37.8513 C   0  0  0  0  0  0  0  0  0  0  0  0
    4.0169   -0.8449   36.4908 C   0  0  0  0  0  0  0  0  0  0  0  0
    3.5541   -1.4579   33.6515 N   0  0  0  0  0  0  0  0  0  0  0  0
    2.9452   -1.9106   32.5431 N   0  0  0  0  0  0  0  0  0  0  0  0
    5.1189   -3.8597   28.6286 N   0  0  0  0  0  0  0  0  0  0  0  0
    5.3375   -5.1655   28.2612 C   0  0  0  0  0  0  0  0  0  0  0  0
    4.7893   -5.7683   27.1887 C   0  0  0  0  0  0  0  0  0  0  0  0
    5.2940   -6.9317   26.6512 N   0  0  0  0  0  0  0  0  0  0  0  0
    6.4400   -7.5568   27.0988 C   0  0  0  0  0  0  0  0  0  0  0  0
    6.9543   -8.5030   26.5154 O   0  0  0  0  0  0  0  0  0  0  0  0
    7.0138   -7.0309   28.3555 C   0  0  0  0  0  0  0  0  0  0  0  0
    8.0736   -7.7156   28.9646 C   0  0  0  0  0  0  0  0  0  0  0  0
    8.6085   -7.2412   30.1587 C   0  0  0  0  0  0  0  0  0  0  0  0
    8.0826   -6.0923   30.7434 C   0  0  0  0  0  0  0  0  0  0  0  0
    7.0233   -5.4114   30.1342 C   0  0  0  0  0  0  0  0  0  0  0  0
    6.4738   -5.8653   28.9224 C   0  0  0  0  0  0  0  0  0  0  0  0
    2.7579   -0.0503   26.2207 H   0  0  0  0  0  0  0  0  0  0  0  0
    3.7657    0.1842   24.9558 H   0  0  0  0  0  0  0  0  0  0  0  0
    5.6223   -0.6603   26.1308 H   0  0  0  0  0  0  0  0  0  0  0  0
    4.3098   -1.8290   26.1203 H   0  0  0  0  0  0  0  0  0  0  0  0
    5.2876    0.8173   30.5938 H   0  0  0  0  0  0  0  0  0  0  0  0
    1.7890   -1.8073   27.7348 H   0  0  0  0  0  0  0  0  0  0  0  0
    0.6856   -3.0599   28.2645 H   0  0  0  0  0  0  0  0  0  0  0  0
    0.6361   -0.7510   29.3135 H   0  0  0  0  0  0  0  0  0  0  0  0
    2.0417   -1.1436   30.2300 H   0  0  0  0  0  0  0  0  0  0  0  0
   -0.6016   -2.6894   30.2679 H   0  0  0  0  0  0  0  0  0  0  0  0
   -0.2443   -1.3397   31.3236 H   0  0  0  0  0  0  0  0  0  0  0  0
   -0.0522   -3.4815   32.4180 H   0  0  0  0  0  0  0  0  0  0  0  0
    2.1200   -4.0176   30.5062 H   0  0  0  0  0  0  0  0  0  0  0  0
    2.6235   -4.9124   32.7992 H   0  0  0  0  0  0  0  0  0  0  0  0
    2.4569   -6.0126   31.4747 H   0  0  0  0  0  0  0  0  0  0  0  0
    1.2479   -5.4681   34.7654 H   0  0  0  0  0  0  0  0  0  0  0  0
   -0.5888   -6.7996   35.7633 H   0  0  0  0  0  0  0  0  0  0  0  0
   -2.0582   -8.1843   34.3750 H   0  0  0  0  0  0  0  0  0  0  0  0
    0.4946   -6.5551   29.9376 H   0  0  0  0  0  0  0  0  0  0  0  0
    0.9168   -2.2491   36.6135 H   0  0  0  0  0  0  0  0  0  0  0  0
    1.2263   -1.7698   39.0167 H   0  0  0  0  0  0  0  0  0  0  0  0
    3.3173   -0.6976   39.8178 H   0  0  0  0  0  0  0  0  0  0  0  0
    5.1032   -0.1041   38.1992 H   0  0  0  0  0  0  0  0  0  0  0  0
    4.8084   -0.5787   35.7933 H   0  0  0  0  0  0  0  0  0  0  0  0
    3.4301   -1.8268   31.6529 H   0  0  0  0  0  0  0  0  0  0  0  0
    5.9083   -3.2610   28.8592 H   0  0  0  0  0  0  0  0  0  0  0  0
    4.0036   -5.2947   26.6078 H   0  0  0  0  0  0  0  0  0  0  0  0
    4.9653   -7.2599   25.7433 H   0  0  0  0  0  0  0  0  0  0  0  0
    8.4716   -8.6217   28.5116 H   0  0  0  0  0  0  0  0  0  0  0  0
    9.4294   -7.7710   30.6351 H   0  0  0  0  0  0  0  0  0  0  0  0
    8.4946   -5.7271   31.6817 H   0  0  0  0  0  0  0  0  0  0  0  0
    6.6283   -4.5331   30.6389 H   0  0  0  0  0  0  0  0  0  0  0  0
  1  2  1  0
  2  3  1  0
  3  4  1  0
  4  5  1  0
  5  6  2  0
  6  7  1  0
  7  8  1  0
  8  9  2  3
  9 10  1  0
 10 11  1  0
 11 12  1  0
 12 13  1  0
 13 14  1  0
 14 15  1  0
 15 16  1  0
 16 17  2  0
 17 18  1  0
 18 19  2  0
 19 20  1  0
 20 21  2  0
 21 22  1  0
 22 23  2  0
 23 24  1  0
 13 25  1  0
 25 26  2  0
 26 27  1  0
 27 28  1  0
 28 29  2  0
 29 30  1  0
 30 31  2  0
 31 32  1  0
 32 33  2  0
 27 34  2  0
 34 35  1  0
  8 36  1  0
 36 37  1  0
 37 38  2  0
 38 39  1  0
 39 40  1  0
 40 41  2  0
 40 42  1  0
 42 43  2  0
 43 44  1  0
 44 45  2  0
 45 46  1  0
 46 47  2  0
  7  3  2  0
 24 16  1  0
 35 25  1  0
 47 37  1  0
 24 20  1  0
 33 28  1  0
 47 42  1  0
  1 48  1  0
  1 49  1  0
  2 50  1  0
  2 51  1  0
  5 52  1  0
 10 53  1  0
 10 54  1  0
 11 55  1  0
 11 56  1  0
 12 57  1  0
 12 58  1  0
 13 59  1  0
 14 60  1  0
 15 61  1  0
 15 62  1  0
 17 63  1  0
 18 64  1  0
 19 65  1  0
 23 66  1  0
 29 67  1  0
 30 68  1  0
 31 69  1  0
 32 70  1  0
 33 71  1  0
 35 72  1  0
 36 73  1  0
 38 74  1  0
 39 75  1  0
 43 76  1  0
 44 77  1  0
 45 78  1  0
 46 79  1  0
M  END
>  <Energy>  (862) 
112.4832480092942

>  <compound_id>  (862) 
4403

>  <target_id>  (862) 
1

>  <reference_id>  (862) 
189

>  <inspiration_ids>  (862) 
[154, 189]

>  <energy_score>  (862) 
-105.04234802204451

>  <distance_score>  (862) 
2.505004733575401

>  <path>  (862) 
/opt/xchem-fragalysis-2/maxwin/BulkDock/SCRATCH/505735/C4403-P189/C4403-P189.minimised.mol

>  <scratch_subdir>  (862) 
/opt/xchem-fragalysis-2/maxwin/BulkDock/SCRATCH/505735/C4403-P189

>  <fragmenstein_runtime>  (862) 
57.94083547592163

>  <fragmenstein_outcome>  (862) 
too moved

>  <fragmenstein_mode>  (862) 
expansion

>  <fragmenstein_error>  (862) 


$$$$
C4404-P154
     RDKit          3D

 61 66  0  0  0  0  0  0  0  0999 V2000
   -0.0916   -5.8966   30.0633 N   0  0  0  0  0  0  0  0  0  0  0  0
   -0.5587   -5.3675   31.2174 C   0  0  0  0  0  0  0  0  0  0  0  0
   -1.3644   -4.3430   31.3637 N   0  0  0  0  0  0  0  0  0  0  0  0
   -1.3472   -3.9549   32.6783 N   0  0  0  0  0  0  0  0  0  0  0  0
   -0.5588   -4.7862   33.3250 C   0  0  0  0  0  0  0  0  0  0  0  0
   -0.0755   -4.8651   34.6622 C   0  0  0  0  0  0  0  0  0  0  0  0
    1.0332   -5.5988   34.8804 C   0  0  0  0  0  0  0  0  0  0  0  0
    1.7360   -6.2110   33.7336 C   0  0  0  0  0  0  0  0  0  0  0  0
    2.8491   -5.3894   33.0995 C   0  0  0  0  0  0  0  0  0  0  0  0
    3.9514   -4.8927   33.7684 C   0  0  0  0  0  0  0  0  0  0  0  0
    4.7609   -3.9413   33.2253 N   0  0  0  0  0  0  0  0  0  0  0  0
    4.3745   -3.4325   32.0215 C   0  0  0  0  0  0  0  0  0  0  0  0
    3.2707   -3.9019   31.3339 C   0  0  0  0  0  0  0  0  0  0  0  0
    2.7047   -3.2630   30.0843 C   0  0  0  0  0  0  0  0  0  0  0  0
    2.7337   -4.2381   28.9001 C   0  0  0  0  0  0  0  0  0  0  0  0
    1.7440   -4.0484   27.8232 N   0  0  0  0  0  0  0  0  0  0  0  0
    1.7902   -2.8064   27.0553 C   0  0  0  0  0  0  0  0  0  0  0  0
    3.1201   -2.4858   26.4996 C   0  0  0  0  0  0  0  0  0  0  0  0
    3.4321   -1.1616   26.3664 O   0  0  0  0  0  0  0  0  0  0  0  0
    4.7213   -1.1750   25.9400 C   0  0  0  0  0  0  0  0  0  0  0  0
    5.2782   -2.3629   25.8733 N   0  0  0  0  0  0  0  0  0  0  0  0
    4.2242   -3.2197   26.1176 C   0  0  0  0  0  0  0  0  0  0  0  0
    4.3296   -4.6787   26.0902 C   0  0  0  0  0  0  0  0  0  0  0  0
    3.3836   -5.3493   25.9756 O   0  0  0  0  0  0  0  0  0  0  0  0
    5.7964   -5.0604   26.3331 N   0  0  0  0  0  0  0  0  0  0  0  0
    6.3917   -6.2749   26.3892 C   0  0  0  0  0  0  0  0  0  0  0  0
    6.1327   -7.2025   25.4603 C   0  0  0  0  0  0  0  0  0  0  0  0
    6.7235   -8.4364   25.4812 N   0  0  0  0  0  0  0  0  0  0  0  0
    7.5861   -8.8667   26.4594 C   0  0  0  0  0  0  0  0  0  0  0  0
    8.1320   -9.9628   26.4249 O   0  0  0  0  0  0  0  0  0  0  0  0
    7.8034   -7.9213   27.5897 C   0  0  0  0  0  0  0  0  0  0  0  0
    8.5215   -8.3433   28.7132 C   0  0  0  0  0  0  0  0  0  0  0  0
    8.6640   -7.4913   29.8079 C   0  0  0  0  0  0  0  0  0  0  0  0
    8.1032   -6.2160   29.7754 C   0  0  0  0  0  0  0  0  0  0  0  0
    7.4010   -5.7864   28.6465 C   0  0  0  0  0  0  0  0  0  0  0  0
    7.2398   -6.6341   27.5380 C   0  0  0  0  0  0  0  0  0  0  0  0
    2.5597   -4.9317   31.8438 N   0  0  0  0  0  0  0  0  0  0  0  0
    0.9005   -6.6782   32.7696 C   0  0  0  0  0  0  0  0  0  0  0  0
   -0.1149   -5.7673   32.4536 N   0  0  0  0  0  0  0  0  0  0  0  0
   -0.2722   -5.2960   29.2495 H   0  0  0  0  0  0  0  0  0  0  0  0
    0.9040   -6.0918   30.0623 H   0  0  0  0  0  0  0  0  0  0  0  0
   -0.6028   -4.3402   35.4500 H   0  0  0  0  0  0  0  0  0  0  0  0
    1.4552   -5.7093   35.8737 H   0  0  0  0  0  0  0  0  0  0  0  0
    4.2043   -5.2017   34.7758 H   0  0  0  0  0  0  0  0  0  0  0  0
    4.9768   -2.6105   31.6492 H   0  0  0  0  0  0  0  0  0  0  0  0
    1.6713   -2.9680   30.3058 H   0  0  0  0  0  0  0  0  0  0  0  0
    3.2506   -2.3465   29.8331 H   0  0  0  0  0  0  0  0  0  0  0  0
    3.7589   -4.2630   28.5239 H   0  0  0  0  0  0  0  0  0  0  0  0
    2.5761   -5.2600   29.2598 H   0  0  0  0  0  0  0  0  0  0  0  0
    1.8453   -4.8170   27.1444 H   0  0  0  0  0  0  0  0  0  0  0  0
    1.0779   -2.8931   26.2320 H   0  0  0  0  0  0  0  0  0  0  0  0
    1.4387   -1.9839   27.6885 H   0  0  0  0  0  0  0  0  0  0  0  0
    5.1669   -0.2174   25.7220 H   0  0  0  0  0  0  0  0  0  0  0  0
    6.3499   -4.2154   26.4646 H   0  0  0  0  0  0  0  0  0  0  0  0
    5.4802   -7.0179   24.6094 H   0  0  0  0  0  0  0  0  0  0  0  0
    6.5051   -9.0665   24.7030 H   0  0  0  0  0  0  0  0  0  0  0  0
    8.9550   -9.3405   28.7332 H   0  0  0  0  0  0  0  0  0  0  0  0
    9.2180   -7.8196   30.6836 H   0  0  0  0  0  0  0  0  0  0  0  0
    8.2166   -5.5520   30.6293 H   0  0  0  0  0  0  0  0  0  0  0  0
    6.9662   -4.7909   28.6562 H   0  0  0  0  0  0  0  0  0  0  0  0
    1.2661   -7.1631   31.8774 H   0  0  0  0  0  0  0  0  0  0  0  0
  1  2  1  0
  2  3  2  0
  3  4  1  0
  4  5  2  0
  5  6  1  0
  6  7  2  0
  7  8  1  0
  8  9  1  0
  9 10  2  0
 10 11  1  0
 11 12  2  0
 12 13  1  0
 13 14  1  0
 14 15  1  0
 15 16  1  0
 16 17  1  0
 17 18  1  0
 18 19  1  0
 19 20  1  0
 20 21  2  0
 21 22  1  0
 22 23  1  0
 23 24  2  0
 23 25  1  0
 25 26  1  0
 26 27  2  0
 27 28  1  0
 28 29  1  0
 29 30  2  0
 29 31  1  0
 31 32  2  0
 32 33  1  0
 33 34  2  0
 34 35  1  0
 35 36  2  0
 13 37  2  0
  8 38  2  0
 38 39  1  0
 39  2  1  0
 39  5  1  0
 37  9  1  0
 22 18  2  0
 36 26  1  0
 36 31  1  0
  1 40  1  0
  1 41  1  0
  6 42  1  0
  7 43  1  0
 10 44  1  0
 12 45  1  0
 14 46  1  0
 14 47  1  0
 15 48  1  0
 15 49  1  0
 16 50  1  0
 17 51  1  0
 17 52  1  0
 20 53  1  0
 25 54  1  0
 27 55  1  0
 28 56  1  0
 32 57  1  0
 33 58  1  0
 34 59  1  0
 35 60  1  0
 38 61  1  0
M  END
>  <Energy>  (863) 
231.90233935139187

>  <compound_id>  (863) 
4404

>  <target_id>  (863) 
1

>  <reference_id>  (863) 
154

>  <inspiration_ids>  (863) 
[154, 194]

>  <energy_score>  (863) 
4.474754208270724

>  <distance_score>  (863) 
1.5393552476759294

>  <path>  (863) 
/opt/xchem-fragalysis-2/maxwin/BulkDock/SCRATCH/505735/C4404-P154/C4404-P154.minimised.mol

>  <scratch_subdir>  (863) 
/opt/xchem-fragalysis-2/maxwin/BulkDock/SCRATCH/505735/C4404-P154

>  <fragmenstein_runtime>  (863) 
8.694924116134644

>  <fragmenstein_outcome>  (863) 
too moved

>  <fragmenstein_mode>  (863) 
expansion

>  <fragmenstein_error>  (863) 


$$$$
C4404-P194
     RDKit          3D

 61 66  0  0  0  0  0  0  0  0999 V2000
    0.0243   -4.9372   29.8064 N   0  0  0  0  0  0  0  0  0  0  0  0
   -0.4857   -4.5406   30.9938 C   0  0  0  0  0  0  0  0  0  0  0  0
   -1.6411   -3.9611   31.2231 N   0  0  0  0  0  0  0  0  0  0  0  0
   -1.7254   -3.6756   32.5618 N   0  0  0  0  0  0  0  0  0  0  0  0
   -0.6288   -4.1142   33.1405 C   0  0  0  0  0  0  0  0  0  0  0  0
   -0.1376   -4.0784   34.4760 C   0  0  0  0  0  0  0  0  0  0  0  0
    1.1420   -4.4349   34.7221 C   0  0  0  0  0  0  0  0  0  0  0  0
    2.0326   -4.8679   33.6426 C   0  0  0  0  0  0  0  0  0  0  0  0
    3.5006   -4.7738   33.6249 C   0  0  0  0  0  0  0  0  0  0  0  0
    4.3755   -5.1994   34.6029 C   0  0  0  0  0  0  0  0  0  0  0  0
    5.7235   -5.1011   34.4539 N   0  0  0  0  0  0  0  0  0  0  0  0
    6.1583   -4.5494   33.2874 C   0  0  0  0  0  0  0  0  0  0  0  0
    5.2940   -4.1050   32.3007 C   0  0  0  0  0  0  0  0  0  0  0  0
    5.7267   -3.5037   30.9959 C   0  0  0  0  0  0  0  0  0  0  0  0
    5.2636   -4.3029   29.7544 C   0  0  0  0  0  0  0  0  0  0  0  0
    3.8270   -4.3082   29.3884 N   0  0  0  0  0  0  0  0  0  0  0  0
    3.3259   -3.0371   28.8414 C   0  0  0  0  0  0  0  0  0  0  0  0
    3.9482   -2.6603   27.5520 C   0  0  0  0  0  0  0  0  0  0  0  0
    4.0805   -1.3262   27.2757 O   0  0  0  0  0  0  0  0  0  0  0  0
    4.7521   -1.3067   26.0919 C   0  0  0  0  0  0  0  0  0  0  0  0
    5.1056   -2.4833   25.6317 N   0  0  0  0  0  0  0  0  0  0  0  0
    4.5134   -3.3596   26.5060 C   0  0  0  0  0  0  0  0  0  0  0  0
    4.5896   -4.8081   26.3838 C   0  0  0  0  0  0  0  0  0  0  0  0
    3.5976   -5.4655   26.5250 O   0  0  0  0  0  0  0  0  0  0  0  0
    5.9515   -5.1994   26.1903 N   0  0  0  0  0  0  0  0  0  0  0  0
    6.5359   -6.4250   26.1977 C   0  0  0  0  0  0  0  0  0  0  0  0
    6.0062   -7.4366   25.5007 C   0  0  0  0  0  0  0  0  0  0  0  0
    6.6124   -8.6609   25.4264 N   0  0  0  0  0  0  0  0  0  0  0  0
    7.7802   -8.9922   26.0641 C   0  0  0  0  0  0  0  0  0  0  0  0
    8.3543  -10.0595   25.8868 O   0  0  0  0  0  0  0  0  0  0  0  0
    8.3331   -7.9570   26.9746 C   0  0  0  0  0  0  0  0  0  0  0  0
    9.4153   -8.2791   27.8033 C   0  0  0  0  0  0  0  0  0  0  0  0
    9.9410   -7.3155   28.6605 C   0  0  0  0  0  0  0  0  0  0  0  0
    9.4004   -6.0312   28.6749 C   0  0  0  0  0  0  0  0  0  0  0  0
    8.3216   -5.7097   27.8443 C   0  0  0  0  0  0  0  0  0  0  0  0
    7.7594   -6.6722   26.9904 C   0  0  0  0  0  0  0  0  0  0  0  0
    3.9694   -4.1961   32.4894 N   0  0  0  0  0  0  0  0  0  0  0  0
    1.4867   -5.0810   32.4258 C   0  0  0  0  0  0  0  0  0  0  0  0
    0.1943   -4.6671   32.1812 N   0  0  0  0  0  0  0  0  0  0  0  0
   -0.4871   -4.5859   28.9938 H   0  0  0  0  0  0  0  0  0  0  0  0
    1.0258   -4.8383   29.6625 H   0  0  0  0  0  0  0  0  0  0  0  0
   -0.8017   -3.7302   35.2599 H   0  0  0  0  0  0  0  0  0  0  0  0
    1.5401   -4.3705   35.7303 H   0  0  0  0  0  0  0  0  0  0  0  0
    4.0361   -5.6489   35.5283 H   0  0  0  0  0  0  0  0  0  0  0  0
    7.2357   -4.4837   33.1799 H   0  0  0  0  0  0  0  0  0  0  0  0
    5.3703   -2.4688   30.9421 H   0  0  0  0  0  0  0  0  0  0  0  0
    6.8226   -3.4511   30.9750 H   0  0  0  0  0  0  0  0  0  0  0  0
    5.8566   -3.9509   28.9051 H   0  0  0  0  0  0  0  0  0  0  0  0
    5.5601   -5.3492   29.8949 H   0  0  0  0  0  0  0  0  0  0  0  0
    3.6573   -5.0460   28.7000 H   0  0  0  0  0  0  0  0  0  0  0  0
    2.2462   -3.1353   28.6848 H   0  0  0  0  0  0  0  0  0  0  0  0
    3.4556   -2.2387   29.5801 H   0  0  0  0  0  0  0  0  0  0  0  0
    4.9261   -0.3421   25.6474 H   0  0  0  0  0  0  0  0  0  0  0  0
    6.5386   -4.3681   26.1925 H   0  0  0  0  0  0  0  0  0  0  0  0
    5.1178   -7.3255   24.8823 H   0  0  0  0  0  0  0  0  0  0  0  0
    6.2426   -9.3164   24.7309 H   0  0  0  0  0  0  0  0  0  0  0  0
    9.8407   -9.2804   27.7802 H   0  0  0  0  0  0  0  0  0  0  0  0
   10.7819   -7.5627   29.3037 H   0  0  0  0  0  0  0  0  0  0  0  0
    9.8254   -5.2742   29.3296 H   0  0  0  0  0  0  0  0  0  0  0  0
    7.9311   -4.6981   27.8824 H   0  0  0  0  0  0  0  0  0  0  0  0
    2.0630   -5.3695   31.5544 H   0  0  0  0  0  0  0  0  0  0  0  0
  1  2  1  0
  2  3  2  0
  3  4  1  0
  4  5  2  0
  5  6  1  0
  6  7  2  0
  7  8  1  0
  8  9  1  0
  9 10  2  0
 10 11  1  0
 11 12  2  0
 12 13  1  0
 13 14  1  0
 14 15  1  0
 15 16  1  0
 16 17  1  0
 17 18  1  0
 18 19  1  0
 19 20  1  0
 20 21  2  0
 21 22  1  0
 22 23  1  0
 23 24  2  0
 23 25  1  0
 25 26  1  0
 26 27  2  0
 27 28  1  0
 28 29  1  0
 29 30  2  0
 29 31  1  0
 31 32  2  0
 32 33  1  0
 33 34  2  0
 34 35  1  0
 35 36  2  0
 13 37  2  0
  8 38  2  0
 38 39  1  0
 39  2  1  0
 39  5  1  0
 37  9  1  0
 22 18  2  0
 36 26  1  0
 36 31  1  0
  1 40  1  0
  1 41  1  0
  6 42  1  0
  7 43  1  0
 10 44  1  0
 12 45  1  0
 14 46  1  0
 14 47  1  0
 15 48  1  0
 15 49  1  0
 16 50  1  0
 17 51  1  0
 17 52  1  0
 20 53  1  0
 25 54  1  0
 27 55  1  0
 28 56  1  0
 32 57  1  0
 33 58  1  0
 34 59  1  0
 35 60  1  0
 38 61  1  0
M  END
>  <Energy>  (864) 
182.00420372734234

>  <compound_id>  (864) 
4404

>  <target_id>  (864) 
1

>  <reference_id>  (864) 
194

>  <inspiration_ids>  (864) 
[154, 194]

>  <energy_score>  (864) 
-84.84424777547213

>  <distance_score>  (864) 
2.3419647860570203

>  <path>  (864) 
/opt/xchem-fragalysis-2/maxwin/BulkDock/SCRATCH/505735/C4404-P194/C4404-P194.minimised.mol

>  <scratch_subdir>  (864) 
/opt/xchem-fragalysis-2/maxwin/BulkDock/SCRATCH/505735/C4404-P194

>  <fragmenstein_runtime>  (864) 
13.732111930847168

>  <fragmenstein_outcome>  (864) 
too moved

>  <fragmenstein_mode>  (864) 
expansion

>  <fragmenstein_error>  (864) 


$$$$
C4404-P154
     RDKit          3D

 61 66  0  0  0  0  0  0  0  0999 V2000
   -0.1534   -5.6695   29.9449 N   0  0  0  0  0  0  0  0  0  0  0  0
   -0.5838   -5.1769   31.1263 C   0  0  0  0  0  0  0  0  0  0  0  0
   -1.4171   -4.1840   31.3270 N   0  0  0  0  0  0  0  0  0  0  0  0
   -1.3865   -3.8476   32.6556 N   0  0  0  0  0  0  0  0  0  0  0  0
   -0.5518   -4.6708   33.2519 C   0  0  0  0  0  0  0  0  0  0  0  0
   -0.0310   -4.7717   34.5722 C   0  0  0  0  0  0  0  0  0  0  0  0
    1.0924   -5.4935   34.7485 C   0  0  0  0  0  0  0  0  0  0  0  0
    1.7755   -6.0798   33.5786 C   0  0  0  0  0  0  0  0  0  0  0  0
    2.8951   -5.2618   32.9617 C   0  0  0  0  0  0  0  0  0  0  0  0
    4.0055   -4.7837   33.6305 C   0  0  0  0  0  0  0  0  0  0  0  0
    4.8242   -3.8373   33.0920 N   0  0  0  0  0  0  0  0  0  0  0  0
    4.4430   -3.3183   31.8907 C   0  0  0  0  0  0  0  0  0  0  0  0
    3.3318   -3.7710   31.2051 C   0  0  0  0  0  0  0  0  0  0  0  0
    2.7762   -3.1446   29.9472 C   0  0  0  0  0  0  0  0  0  0  0  0
    2.7418   -4.1733   28.8093 C   0  0  0  0  0  0  0  0  0  0  0  0
    1.7565   -3.9929   27.7273 N   0  0  0  0  0  0  0  0  0  0  0  0
    1.8266   -2.7709   26.9296 C   0  0  0  0  0  0  0  0  0  0  0  0
    3.1805   -2.4463   26.4398 C   0  0  0  0  0  0  0  0  0  0  0  0
    3.5083   -1.1227   26.3572 O   0  0  0  0  0  0  0  0  0  0  0  0
    4.8188   -1.1379   26.0032 C   0  0  0  0  0  0  0  0  0  0  0  0
    5.3692   -2.3288   25.9330 N   0  0  0  0  0  0  0  0  0  0  0  0
    4.2972   -3.1819   26.0992 C   0  0  0  0  0  0  0  0  0  0  0  0
    4.3904   -4.6424   26.0614 C   0  0  0  0  0  0  0  0  0  0  0  0
    3.4398   -5.3016   25.9241 O   0  0  0  0  0  0  0  0  0  0  0  0
    5.8477   -5.0414   26.3273 N   0  0  0  0  0  0  0  0  0  0  0  0
    6.4291   -6.2627   26.3837 C   0  0  0  0  0  0  0  0  0  0  0  0
    6.1602   -7.1885   25.4556 C   0  0  0  0  0  0  0  0  0  0  0  0
    6.7354   -8.4296   25.4792 N   0  0  0  0  0  0  0  0  0  0  0  0
    7.5918   -8.8686   26.4592 C   0  0  0  0  0  0  0  0  0  0  0  0
    8.1258   -9.9705   26.4266 O   0  0  0  0  0  0  0  0  0  0  0  0
    7.8172   -7.9250   27.5894 C   0  0  0  0  0  0  0  0  0  0  0  0
    8.5273   -8.3545   28.7151 C   0  0  0  0  0  0  0  0  0  0  0  0
    8.6743   -7.5046   29.8110 C   0  0  0  0  0  0  0  0  0  0  0  0
    8.1256   -6.2242   29.7777 C   0  0  0  0  0  0  0  0  0  0  0  0
    7.4325   -5.7869   28.6463 C   0  0  0  0  0  0  0  0  0  0  0  0
    7.2679   -6.6318   27.5360 C   0  0  0  0  0  0  0  0  0  0  0  0
    2.6055   -4.7878   31.7155 N   0  0  0  0  0  0  0  0  0  0  0  0
    0.9323   -6.5181   32.6066 C   0  0  0  0  0  0  0  0  0  0  0  0
   -0.1001   -5.6087   32.3374 N   0  0  0  0  0  0  0  0  0  0  0  0
   -0.3591   -5.0587   29.1452 H   0  0  0  0  0  0  0  0  0  0  0  0
    0.8353   -5.8864   29.8979 H   0  0  0  0  0  0  0  0  0  0  0  0
   -0.5443   -4.2697   35.3840 H   0  0  0  0  0  0  0  0  0  0  0  0
    1.5399   -5.6131   35.7297 H   0  0  0  0  0  0  0  0  0  0  0  0
    4.2593   -5.1047   34.6338 H   0  0  0  0  0  0  0  0  0  0  0  0
    5.0579   -2.5064   31.5174 H   0  0  0  0  0  0  0  0  0  0  0  0
    1.7620   -2.7922   30.1721 H   0  0  0  0  0  0  0  0  0  0  0  0
    3.3649   -2.2688   29.6520 H   0  0  0  0  0  0  0  0  0  0  0  0
    3.7625   -4.2681   28.4345 H   0  0  0  0  0  0  0  0  0  0  0  0
    2.5447   -5.1714   29.2116 H   0  0  0  0  0  0  0  0  0  0  0  0
    1.8551   -4.7772   27.0663 H   0  0  0  0  0  0  0  0  0  0  0  0
    1.1629   -2.8904   26.0710 H   0  0  0  0  0  0  0  0  0  0  0  0
    1.4305   -1.9387   27.5224 H   0  0  0  0  0  0  0  0  0  0  0  0
    5.2848   -0.1788   25.8421 H   0  0  0  0  0  0  0  0  0  0  0  0
    6.4075   -4.2035   26.4759 H   0  0  0  0  0  0  0  0  0  0  0  0
    5.5114   -6.9974   24.6033 H   0  0  0  0  0  0  0  0  0  0  0  0
    6.5100   -9.0590   24.7024 H   0  0  0  0  0  0  0  0  0  0  0  0
    8.9509   -9.3559   28.7357 H   0  0  0  0  0  0  0  0  0  0  0  0
    9.2221   -7.8388   30.6883 H   0  0  0  0  0  0  0  0  0  0  0  0
    8.2418   -5.5620   30.6327 H   0  0  0  0  0  0  0  0  0  0  0  0
    7.0073   -4.7872   28.6556 H   0  0  0  0  0  0  0  0  0  0  0  0
    1.2924   -6.9817   31.6991 H   0  0  0  0  0  0  0  0  0  0  0  0
  1  2  1  0
  2  3  2  0
  3  4  1  0
  4  5  2  0
  5  6  1  0
  6  7  2  0
  7  8  1  0
  8  9  1  0
  9 10  2  0
 10 11  1  0
 11 12  2  0
 12 13  1  0
 13 14  1  0
 14 15  1  0
 15 16  1  0
 16 17  1  0
 17 18  1  0
 18 19  1  0
 19 20  1  0
 20 21  2  0
 21 22  1  0
 22 23  1  0
 23 24  2  0
 23 25  1  0
 25 26  1  0
 26 27  2  0
 27 28  1  0
 28 29  1  0
 29 30  2  0
 29 31  1  0
 31 32  2  0
 32 33  1  0
 33 34  2  0
 34 35  1  0
 35 36  2  0
 13 37  2  0
  8 38  2  0
 38 39  1  0
 39  2  1  0
 39  5  1  0
 37  9  1  0
 22 18  2  0
 36 26  1  0
 36 31  1  0
  1 40  1  0
  1 41  1  0
  6 42  1  0
  7 43  1  0
 10 44  1  0
 12 45  1  0
 14 46  1  0
 14 47  1  0
 15 48  1  0
 15 49  1  0
 16 50  1  0
 17 51  1  0
 17 52  1  0
 20 53  1  0
 25 54  1  0
 27 55  1  0
 28 56  1  0
 32 57  1  0
 33 58  1  0
 34 59  1  0
 35 60  1  0
 38 61  1  0
M  END
>  <Energy>  (865) 
230.18680653274575

>  <compound_id>  (865) 
4404

>  <target_id>  (865) 
1

>  <reference_id>  (865) 
154

>  <inspiration_ids>  (865) 
[154, 195]

>  <energy_score>  (865) 
2.7592213896245994

>  <distance_score>  (865) 
1.5418318493244458

>  <path>  (865) 
/opt/xchem-fragalysis-2/maxwin/BulkDock/SCRATCH/505735/C4404-P154/C4404-P154.minimised.mol

>  <scratch_subdir>  (865) 
/opt/xchem-fragalysis-2/maxwin/BulkDock/SCRATCH/505735/C4404-P154

>  <fragmenstein_runtime>  (865) 
7.859753370285034

>  <fragmenstein_outcome>  (865) 
too moved

>  <fragmenstein_mode>  (865) 
expansion

>  <fragmenstein_error>  (865) 


$$$$
C4404-P195
     RDKit          3D

 61 66  0  0  0  0  0  0  0  0999 V2000
   -0.0412   -5.3875   29.9370 N   0  0  0  0  0  0  0  0  0  0  0  0
   -0.5878   -5.0643   31.1235 C   0  0  0  0  0  0  0  0  0  0  0  0
   -1.3872   -4.0548   31.3665 N   0  0  0  0  0  0  0  0  0  0  0  0
   -1.5796   -3.9654   32.7189 N   0  0  0  0  0  0  0  0  0  0  0  0
   -0.8954   -4.9337   33.2855 C   0  0  0  0  0  0  0  0  0  0  0  0
   -0.5988   -5.2734   34.6342 C   0  0  0  0  0  0  0  0  0  0  0  0
    0.4425   -6.0953   34.8641 C   0  0  0  0  0  0  0  0  0  0  0  0
    1.2661   -6.5686   33.7404 C   0  0  0  0  0  0  0  0  0  0  0  0
    2.5819   -5.8783   33.4796 C   0  0  0  0  0  0  0  0  0  0  0  0
    3.5829   -5.6505   34.4024 C   0  0  0  0  0  0  0  0  0  0  0  0
    4.6300   -4.8189   34.1428 N   0  0  0  0  0  0  0  0  0  0  0  0
    4.5953   -4.1520   32.9540 C   0  0  0  0  0  0  0  0  0  0  0  0
    3.6017   -4.3575   32.0159 C   0  0  0  0  0  0  0  0  0  0  0  0
    3.3996   -3.5361   30.7701 C   0  0  0  0  0  0  0  0  0  0  0  0
    3.1845   -4.3960   29.4985 C   0  0  0  0  0  0  0  0  0  0  0  0
    2.1473   -3.9638   28.5254 N   0  0  0  0  0  0  0  0  0  0  0  0
    2.2433   -2.5709   28.1117 C   0  0  0  0  0  0  0  0  0  0  0  0
    3.4114   -2.2926   27.2578 C   0  0  0  0  0  0  0  0  0  0  0  0
    3.7370   -0.9722   27.1045 O   0  0  0  0  0  0  0  0  0  0  0  0
    4.8616   -0.9984   26.3467 C   0  0  0  0  0  0  0  0  0  0  0  0
    5.3128   -2.1960   26.0599 N   0  0  0  0  0  0  0  0  0  0  0  0
    4.3201   -3.0328   26.5305 C   0  0  0  0  0  0  0  0  0  0  0  0
    4.3229   -4.4746   26.3057 C   0  0  0  0  0  0  0  0  0  0  0  0
    3.3501   -5.0679   26.0543 O   0  0  0  0  0  0  0  0  0  0  0  0
    5.7722   -4.9648   26.4925 N   0  0  0  0  0  0  0  0  0  0  0  0
    6.2832   -6.2217   26.5026 C   0  0  0  0  0  0  0  0  0  0  0  0
    6.0085   -7.0871   25.5191 C   0  0  0  0  0  0  0  0  0  0  0  0
    6.5737   -8.3339   25.4692 N   0  0  0  0  0  0  0  0  0  0  0  0
    7.4274   -8.8383   26.4215 C   0  0  0  0  0  0  0  0  0  0  0  0
    7.9433   -9.9458   26.3307 O   0  0  0  0  0  0  0  0  0  0  0  0
    7.6640   -7.9666   27.6053 C   0  0  0  0  0  0  0  0  0  0  0  0
    8.3694   -8.4695   28.7051 C   0  0  0  0  0  0  0  0  0  0  0  0
    8.5419   -7.6805   29.8413 C   0  0  0  0  0  0  0  0  0  0  0  0
    8.0232   -6.3881   29.8762 C   0  0  0  0  0  0  0  0  0  0  0  0
    7.3245   -5.8822   28.7767 C   0  0  0  0  0  0  0  0  0  0  0  0
    7.1308   -6.6656   27.6257 C   0  0  0  0  0  0  0  0  0  0  0  0
    2.6338   -5.2575   32.2685 N   0  0  0  0  0  0  0  0  0  0  0  0
    0.5958   -6.7456   32.5704 C   0  0  0  0  0  0  0  0  0  0  0  0
   -0.3279   -5.7284   32.3023 N   0  0  0  0  0  0  0  0  0  0  0  0
    0.3799   -6.2923   29.7795 H   0  0  0  0  0  0  0  0  0  0  0  0
   -0.5253   -5.0383   29.1057 H   0  0  0  0  0  0  0  0  0  0  0  0
   -1.2062   -4.8613   35.4322 H   0  0  0  0  0  0  0  0  0  0  0  0
    0.7069   -6.3967   35.8726 H   0  0  0  0  0  0  0  0  0  0  0  0
    3.5691   -6.0898   35.3928 H   0  0  0  0  0  0  0  0  0  0  0  0
    5.3879   -3.4268   32.8040 H   0  0  0  0  0  0  0  0  0  0  0  0
    2.5185   -2.9112   30.9613 H   0  0  0  0  0  0  0  0  0  0  0  0
    4.2447   -2.8561   30.6115 H   0  0  0  0  0  0  0  0  0  0  0  0
    4.1519   -4.4937   28.9962 H   0  0  0  0  0  0  0  0  0  0  0  0
    2.9207   -5.4259   29.7658 H   0  0  0  0  0  0  0  0  0  0  0  0
    1.2494   -4.0681   29.0115 H   0  0  0  0  0  0  0  0  0  0  0  0
    2.2781   -1.9130   28.9878 H   0  0  0  0  0  0  0  0  0  0  0  0
    1.3197   -2.2848   27.6110 H   0  0  0  0  0  0  0  0  0  0  0  0
    5.2795   -0.0414   26.0786 H   0  0  0  0  0  0  0  0  0  0  0  0
    6.3575   -4.1881   26.7871 H   0  0  0  0  0  0  0  0  0  0  0  0
    5.3778   -6.8336   24.6707 H   0  0  0  0  0  0  0  0  0  0  0  0
    6.3650   -8.9056   24.6441 H   0  0  0  0  0  0  0  0  0  0  0  0
    8.7760   -9.4783   28.6803 H   0  0  0  0  0  0  0  0  0  0  0  0
    9.0882   -8.0769   30.6943 H   0  0  0  0  0  0  0  0  0  0  0  0
    8.1656   -5.7730   30.7615 H   0  0  0  0  0  0  0  0  0  0  0  0
    6.9195   -4.8769   28.8451 H   0  0  0  0  0  0  0  0  0  0  0  0
    1.0942   -7.0818   31.6715 H   0  0  0  0  0  0  0  0  0  0  0  0
  1  2  1  0
  2  3  2  0
  3  4  1  0
  4  5  2  0
  5  6  1  0
  6  7  2  0
  7  8  1  0
  8  9  1  0
  9 10  2  0
 10 11  1  0
 11 12  2  0
 12 13  1  0
 13 14  1  0
 14 15  1  0
 15 16  1  0
 16 17  1  0
 17 18  1  0
 18 19  1  0
 19 20  1  0
 20 21  2  0
 21 22  1  0
 22 23  1  0
 23 24  2  0
 23 25  1  0
 25 26  1  0
 26 27  2  0
 27 28  1  0
 28 29  1  0
 29 30  2  0
 29 31  1  0
 31 32  2  0
 32 33  1  0
 33 34  2  0
 34 35  1  0
 35 36  2  0
 13 37  2  0
  8 38  2  0
 38 39  1  0
 39  2  1  0
 39  5  1  0
 37  9  1  0
 22 18  2  0
 36 26  1  0
 36 31  1  0
  1 40  1  0
  1 41  1  0
  6 42  1  0
  7 43  1  0
 10 44  1  0
 12 45  1  0
 14 46  1  0
 14 47  1  0
 15 48  1  0
 15 49  1  0
 16 50  1  0
 17 51  1  0
 17 52  1  0
 20 53  1  0
 25 54  1  0
 27 55  1  0
 28 56  1  0
 32 57  1  0
 33 58  1  0
 34 59  1  0
 35 60  1  0
 38 61  1  0
M  END
>  <Energy>  (866) 
232.07200903798017

>  <compound_id>  (866) 
4404

>  <target_id>  (866) 
1

>  <reference_id>  (866) 
195

>  <inspiration_ids>  (866) 
[154, 195]

>  <energy_score>  (866) 
4.644423894862825

>  <distance_score>  (866) 
1.6020370466536342

>  <path>  (866) 
/opt/xchem-fragalysis-2/maxwin/BulkDock/SCRATCH/505735/C4404-P195/C4404-P195.minimised.mol

>  <scratch_subdir>  (866) 
/opt/xchem-fragalysis-2/maxwin/BulkDock/SCRATCH/505735/C4404-P195

>  <fragmenstein_runtime>  (866) 
8.357083797454834

>  <fragmenstein_outcome>  (866) 
too moved

>  <fragmenstein_mode>  (866) 
expansion

>  <fragmenstein_error>  (866) 


$$$$
C4405-P154
     RDKit          3D

 74 80  0  0  0  0  0  0  0  0999 V2000
    4.8405   -4.6572   28.6170 O   0  0  0  0  0  0  0  0  0  0  0  0
    5.0134   -4.4118   27.4577 C   0  0  0  0  0  0  0  0  0  0  0  0
    5.7719   -5.1033   26.4561 N   0  0  0  0  0  0  0  0  0  0  0  0
    6.4460   -6.2889   26.5015 C   0  0  0  0  0  0  0  0  0  0  0  0
    6.3994   -7.0644   25.4072 C   0  0  0  0  0  0  0  0  0  0  0  0
    6.9631   -8.3078   25.3567 N   0  0  0  0  0  0  0  0  0  0  0  0
    7.6606   -8.8839   26.3864 C   0  0  0  0  0  0  0  0  0  0  0  0
    8.1412  -10.0078   26.3042 O   0  0  0  0  0  0  0  0  0  0  0  0
    7.8226   -8.0459   27.6053 C   0  0  0  0  0  0  0  0  0  0  0  0
    8.6200   -8.5290   28.6517 C   0  0  0  0  0  0  0  0  0  0  0  0
    8.8606   -7.7347   29.7691 C   0  0  0  0  0  0  0  0  0  0  0  0
    8.3215   -6.4551   29.8299 C   0  0  0  0  0  0  0  0  0  0  0  0
    7.5332   -5.9721   28.7794 C   0  0  0  0  0  0  0  0  0  0  0  0
    7.2344   -6.7661   27.6615 C   0  0  0  0  0  0  0  0  0  0  0  0
    4.3943   -3.2439   26.8290 C   0  0  0  0  0  0  0  0  0  0  0  0
    4.8556   -2.7634   25.6124 N   0  0  0  0  0  0  0  0  0  0  0  0
    4.1324   -1.6903   25.4074 C   0  0  0  0  0  0  0  0  0  0  0  0
    3.1800   -1.4545   26.3411 O   0  0  0  0  0  0  0  0  0  0  0  0
    3.3417   -2.4619   27.2591 C   0  0  0  0  0  0  0  0  0  0  0  0
    2.4415   -2.4039   28.4282 C   0  0  0  0  0  0  0  0  0  0  0  0
    1.4510   -3.4742   28.5130 N   0  0  0  0  0  0  0  0  0  0  0  0
    1.9335   -4.6621   29.2121 C   0  0  0  0  0  0  0  0  0  0  0  0
    0.8331   -5.2461   30.1108 C   0  0  0  0  0  0  0  0  0  0  0  0
    0.6172   -4.3978   31.3353 C   0  0  0  0  0  0  0  0  0  0  0  0
   -0.4817   -3.6573   31.5406 C   0  0  0  0  0  0  0  0  0  0  0  0
   -0.6523   -2.7316   32.7059 C   0  0  0  0  0  0  0  0  0  0  0  0
   -1.1616   -1.4439   32.2764 N   0  0  0  0  0  0  0  0  0  0  0  0
   -2.4763   -1.0611   32.2460 C   0  0  0  0  0  0  0  0  0  0  0  0
   -3.7642   -1.9199   33.0088 S   0  0  0  0  0  0  0  0  0  0  0  0
   -4.4292   -0.6908   34.0597 C   0  0  0  0  0  0  0  0  0  0  0  0
   -3.7351    0.3681   34.5363 C   0  0  0  0  0  0  0  0  0  0  0  0
   -4.3658    1.3013   35.4607 C   0  0  0  0  0  0  0  0  0  0  0  0
   -5.6165    1.1043   35.9150 C   0  0  0  0  0  0  0  0  0  0  0  0
   -6.3451   -0.0291   35.4728 C   0  0  0  0  0  0  0  0  0  0  0  0
   -7.5239   -0.5108   35.8040 N   0  0  0  0  0  0  0  0  0  0  0  0
   -7.7426   -1.6412   35.0526 N   0  0  0  0  0  0  0  0  0  0  0  0
   -6.6999   -1.8070   34.2719 C   0  0  0  0  0  0  0  0  0  0  0  0
   -5.7457   -0.8587   34.5332 N   0  0  0  0  0  0  0  0  0  0  0  0
   -2.5983    0.0568   31.5794 N   0  0  0  0  0  0  0  0  0  0  0  0
   -1.3393    0.4749   31.2472 N   0  0  0  0  0  0  0  0  0  0  0  0
   -0.4587   -0.3918   31.7185 C   0  0  0  0  0  0  0  0  0  0  0  0
    0.9863   -0.2203   31.6144 C   0  0  0  0  0  0  0  0  0  0  0  0
    1.8760   -0.4933   32.6567 C   0  0  0  0  0  0  0  0  0  0  0  0
    3.2433   -0.2733   32.4845 C   0  0  0  0  0  0  0  0  0  0  0  0
    3.6823    0.2375   31.2756 C   0  0  0  0  0  0  0  0  0  0  0  0
    2.8560    0.5465   30.2572 N   0  0  0  0  0  0  0  0  0  0  0  0
    1.5317    0.3271   30.4560 C   0  0  0  0  0  0  0  0  0  0  0  0
    5.6228   -4.6486   25.5528 H   0  0  0  0  0  0  0  0  0  0  0  0
    5.8489   -6.7848   24.5118 H   0  0  0  0  0  0  0  0  0  0  0  0
    6.7589   -8.8823   24.5335 H   0  0  0  0  0  0  0  0  0  0  0  0
    9.0687   -9.5168   28.5782 H   0  0  0  0  0  0  0  0  0  0  0  0
    9.4903   -8.1008   30.5752 H   0  0  0  0  0  0  0  0  0  0  0  0
    8.5321   -5.8150   30.6830 H   0  0  0  0  0  0  0  0  0  0  0  0
    7.1920   -4.9441   28.8445 H   0  0  0  0  0  0  0  0  0  0  0  0
    4.2153   -0.9806   24.6019 H   0  0  0  0  0  0  0  0  0  0  0  0
    3.0240   -2.3172   29.3524 H   0  0  0  0  0  0  0  0  0  0  0  0
    1.8670   -1.4742   28.3559 H   0  0  0  0  0  0  0  0  0  0  0  0
    1.0827   -3.6983   27.5873 H   0  0  0  0  0  0  0  0  0  0  0  0
    2.7927   -4.4383   29.8542 H   0  0  0  0  0  0  0  0  0  0  0  0
    2.2566   -5.4123   28.4832 H   0  0  0  0  0  0  0  0  0  0  0  0
   -0.1013   -5.3667   29.5523 H   0  0  0  0  0  0  0  0  0  0  0  0
    1.1295   -6.2484   30.4405 H   0  0  0  0  0  0  0  0  0  0  0  0
    1.4382   -4.3713   32.0494 H   0  0  0  0  0  0  0  0  0  0  0  0
   -1.2694   -3.6659   30.7900 H   0  0  0  0  0  0  0  0  0  0  0  0
   -1.3498   -3.1702   33.4231 H   0  0  0  0  0  0  0  0  0  0  0  0
    0.2806   -2.5796   33.2507 H   0  0  0  0  0  0  0  0  0  0  0  0
   -2.7018    0.5787   34.2803 H   0  0  0  0  0  0  0  0  0  0  0  0
   -3.7898    2.1637   35.7848 H   0  0  0  0  0  0  0  0  0  0  0  0
   -6.0898    1.7894   36.6094 H   0  0  0  0  0  0  0  0  0  0  0  0
   -6.5849   -2.5796   33.5287 H   0  0  0  0  0  0  0  0  0  0  0  0
    1.5269   -0.8422   33.6231 H   0  0  0  0  0  0  0  0  0  0  0  0
    3.9494   -0.4806   33.2812 H   0  0  0  0  0  0  0  0  0  0  0  0
    4.7364    0.4271   31.0926 H   0  0  0  0  0  0  0  0  0  0  0  0
    0.8981    0.6080   29.6162 H   0  0  0  0  0  0  0  0  0  0  0  0
  1  2  2  0
  2  3  1  0
  3  4  1  0
  4  5  2  0
  5  6  1  0
  6  7  1  0
  7  8  2  0
  7  9  1  0
  9 10  2  0
 10 11  1  0
 11 12  2  0
 12 13  1  0
 13 14  2  0
  2 15  1  0
 15 16  1  0
 16 17  2  0
 17 18  1  0
 18 19  1  0
 19 20  1  0
 20 21  1  0
 21 22  1  0
 22 23  1  0
 23 24  1  0
 24 25  2  3
 25 26  1  0
 26 27  1  0
 27 28  1  0
 28 29  1  0
 29 30  1  0
 30 31  2  0
 31 32  1  0
 32 33  2  0
 33 34  1  0
 34 35  2  0
 35 36  1  0
 36 37  2  0
 37 38  1  0
 28 39  2  0
 39 40  1  0
 40 41  2  0
 41 42  1  0
 42 43  2  0
 43 44  1  0
 44 45  2  0
 45 46  1  0
 46 47  2  0
 14  4  1  0
 19 15  2  0
 41 27  1  0
 47 42  1  0
 14  9  1  0
 38 30  1  0
 38 34  1  0
  3 48  1  0
  5 49  1  0
  6 50  1  0
 10 51  1  0
 11 52  1  0
 12 53  1  0
 13 54  1  0
 17 55  1  0
 20 56  1  0
 20 57  1  0
 21 58  1  0
 22 59  1  0
 22 60  1  0
 23 61  1  0
 23 62  1  0
 24 63  1  0
 25 64  1  0
 26 65  1  0
 26 66  1  0
 31 67  1  0
 32 68  1  0
 33 69  1  0
 37 70  1  0
 43 71  1  0
 44 72  1  0
 45 73  1  0
 47 74  1  0
M  END
>  <Energy>  (867) 
140.40373909708265

>  <compound_id>  (867) 
4405

>  <target_id>  (867) 
1

>  <reference_id>  (867) 
154

>  <inspiration_ids>  (867) 
[154, 196]

>  <energy_score>  (867) 
-92.56734683827233

>  <distance_score>  (867) 
1.667489301510839

>  <path>  (867) 
/opt/xchem-fragalysis-2/maxwin/BulkDock/SCRATCH/505735/C4405-P154/C4405-P154.minimised.mol

>  <scratch_subdir>  (867) 
/opt/xchem-fragalysis-2/maxwin/BulkDock/SCRATCH/505735/C4405-P154

>  <fragmenstein_runtime>  (867) 
41.79792070388794

>  <fragmenstein_outcome>  (867) 
too moved

>  <fragmenstein_mode>  (867) 
expansion

>  <fragmenstein_error>  (867) 


$$$$
C4405-P196
     RDKit          3D

 74 80  0  0  0  0  0  0  0  0999 V2000
    4.9139   -4.5579   28.6726 O   0  0  0  0  0  0  0  0  0  0  0  0
    5.1146   -4.2844   27.5229 C   0  0  0  0  0  0  0  0  0  0  0  0
    5.8933   -4.9554   26.5208 N   0  0  0  0  0  0  0  0  0  0  0  0
    6.5612   -6.1476   26.5520 C   0  0  0  0  0  0  0  0  0  0  0  0
    6.5634   -6.8728   25.4218 C   0  0  0  0  0  0  0  0  0  0  0  0
    7.0369   -8.1539   25.3635 N   0  0  0  0  0  0  0  0  0  0  0  0
    7.5562   -8.8348   26.4356 C   0  0  0  0  0  0  0  0  0  0  0  0
    7.9165  -10.0030   26.3538 O   0  0  0  0  0  0  0  0  0  0  0  0
    7.6662   -8.0611   27.7024 C   0  0  0  0  0  0  0  0  0  0  0  0
    8.2740   -8.6621   28.8129 C   0  0  0  0  0  0  0  0  0  0  0  0
    8.4635   -7.9369   29.9847 C   0  0  0  0  0  0  0  0  0  0  0  0
    8.0786   -6.6023   30.0330 C   0  0  0  0  0  0  0  0  0  0  0  0
    7.4732   -6.0033   28.9220 C   0  0  0  0  0  0  0  0  0  0  0  0
    7.2062   -6.7302   27.7517 C   0  0  0  0  0  0  0  0  0  0  0  0
    4.4565   -3.1338   26.8983 C   0  0  0  0  0  0  0  0  0  0  0  0
    4.9784   -2.4657   25.8042 N   0  0  0  0  0  0  0  0  0  0  0  0
    4.1158   -1.4960   25.5955 C   0  0  0  0  0  0  0  0  0  0  0  0
    3.0111   -1.5261   26.3906 O   0  0  0  0  0  0  0  0  0  0  0  0
    3.2358   -2.5840   27.2284 C   0  0  0  0  0  0  0  0  0  0  0  0
    2.2144   -2.8769   28.2553 C   0  0  0  0  0  0  0  0  0  0  0  0
    1.8953   -4.3038   28.2812 N   0  0  0  0  0  0  0  0  0  0  0  0
    1.1529   -4.7218   29.4711 C   0  0  0  0  0  0  0  0  0  0  0  0
    1.9056   -4.6323   30.8099 C   0  0  0  0  0  0  0  0  0  0  0  0
    1.6909   -3.3285   31.5178 C   0  0  0  0  0  0  0  0  0  0  0  0
    0.5267   -2.9845   32.0865 C   0  0  0  0  0  0  0  0  0  0  0  0
    0.2629   -1.6309   32.6655 C   0  0  0  0  0  0  0  0  0  0  0  0
   -0.5488   -0.8363   31.7640 N   0  0  0  0  0  0  0  0  0  0  0  0
   -1.9071   -0.9194   31.6113 C   0  0  0  0  0  0  0  0  0  0  0  0
   -2.9286   -1.9440   32.5479 S   0  0  0  0  0  0  0  0  0  0  0  0
   -3.6439   -0.8110   33.6612 C   0  0  0  0  0  0  0  0  0  0  0  0
   -3.0032    0.2718   34.1563 C   0  0  0  0  0  0  0  0  0  0  0  0
   -3.6654    1.1327   35.1277 C   0  0  0  0  0  0  0  0  0  0  0  0
   -4.8931    0.8478   35.5976 C   0  0  0  0  0  0  0  0  0  0  0  0
   -5.5639   -0.3118   35.1319 C   0  0  0  0  0  0  0  0  0  0  0  0
   -6.7137   -0.8602   35.4582 N   0  0  0  0  0  0  0  0  0  0  0  0
   -6.8813   -1.9794   34.6792 N   0  0  0  0  0  0  0  0  0  0  0  0
   -5.8319   -2.0814   33.8961 C   0  0  0  0  0  0  0  0  0  0  0  0
   -4.9328   -1.0820   34.1623 N   0  0  0  0  0  0  0  0  0  0  0  0
   -2.2918   -0.1650   30.6167 N   0  0  0  0  0  0  0  0  0  0  0  0
   -1.1738    0.4394   30.1043 N   0  0  0  0  0  0  0  0  0  0  0  0
   -0.1235    0.0805   30.8206 C   0  0  0  0  0  0  0  0  0  0  0  0
    1.2368    0.5539   30.5936 C   0  0  0  0  0  0  0  0  0  0  0  0
    2.0514    1.0389   31.6218 C   0  0  0  0  0  0  0  0  0  0  0  0
    3.3523    1.4572   31.3434 C   0  0  0  0  0  0  0  0  0  0  0  0
    3.7980    1.3901   30.0355 C   0  0  0  0  0  0  0  0  0  0  0  0
    3.0334    0.9608   29.0134 N   0  0  0  0  0  0  0  0  0  0  0  0
    1.7651    0.5819   29.3062 C   0  0  0  0  0  0  0  0  0  0  0  0
    5.7672   -4.4784   25.6277 H   0  0  0  0  0  0  0  0  0  0  0  0
    6.0974   -6.5266   24.5025 H   0  0  0  0  0  0  0  0  0  0  0  0
    6.8285   -8.6905   24.5169 H   0  0  0  0  0  0  0  0  0  0  0  0
    8.6189   -9.6906   28.7613 H   0  0  0  0  0  0  0  0  0  0  0  0
    8.9351   -8.4112   30.8419 H   0  0  0  0  0  0  0  0  0  0  0  0
    8.2584   -6.0161   30.9303 H   0  0  0  0  0  0  0  0  0  0  0  0
    7.2365   -4.9460   28.9881 H   0  0  0  0  0  0  0  0  0  0  0  0
    4.1801   -0.6912   24.8777 H   0  0  0  0  0  0  0  0  0  0  0  0
    2.6372   -2.5398   29.2038 H   0  0  0  0  0  0  0  0  0  0  0  0
    1.3016   -2.2993   28.0722 H   0  0  0  0  0  0  0  0  0  0  0  0
    1.3393   -4.5206   27.4504 H   0  0  0  0  0  0  0  0  0  0  0  0
    0.9351   -5.7862   29.3425 H   0  0  0  0  0  0  0  0  0  0  0  0
    0.1818   -4.2135   29.5113 H   0  0  0  0  0  0  0  0  0  0  0  0
    1.5663   -5.4448   31.4661 H   0  0  0  0  0  0  0  0  0  0  0  0
    2.9784   -4.7958   30.6634 H   0  0  0  0  0  0  0  0  0  0  0  0
    2.5255   -2.6287   31.4947 H   0  0  0  0  0  0  0  0  0  0  0  0
   -0.2972   -3.6942   32.0909 H   0  0  0  0  0  0  0  0  0  0  0  0
   -0.2555   -1.7170   33.6260 H   0  0  0  0  0  0  0  0  0  0  0  0
    1.1939   -1.1026   32.8768 H   0  0  0  0  0  0  0  0  0  0  0  0
   -1.9929    0.5523   33.8812 H   0  0  0  0  0  0  0  0  0  0  0  0
   -3.1334    2.0143   35.4761 H   0  0  0  0  0  0  0  0  0  0  0  0
   -5.3902    1.4786   36.3267 H   0  0  0  0  0  0  0  0  0  0  0  0
   -5.6742   -2.8446   33.1505 H   0  0  0  0  0  0  0  0  0  0  0  0
    1.6837    1.1213   32.6399 H   0  0  0  0  0  0  0  0  0  0  0  0
    4.0010    1.8366   32.1252 H   0  0  0  0  0  0  0  0  0  0  0  0
    4.8034    1.6992   29.7638 H   0  0  0  0  0  0  0  0  0  0  0  0
    1.1729    0.2857   28.4417 H   0  0  0  0  0  0  0  0  0  0  0  0
  1  2  2  0
  2  3  1  0
  3  4  1  0
  4  5  2  0
  5  6  1  0
  6  7  1  0
  7  8  2  0
  7  9  1  0
  9 10  2  0
 10 11  1  0
 11 12  2  0
 12 13  1  0
 13 14  2  0
  2 15  1  0
 15 16  1  0
 16 17  2  0
 17 18  1  0
 18 19  1  0
 19 20  1  0
 20 21  1  0
 21 22  1  0
 22 23  1  0
 23 24  1  0
 24 25  2  3
 25 26  1  0
 26 27  1  0
 27 28  1  0
 28 29  1  0
 29 30  1  0
 30 31  2  0
 31 32  1  0
 32 33  2  0
 33 34  1  0
 34 35  2  0
 35 36  1  0
 36 37  2  0
 37 38  1  0
 28 39  2  0
 39 40  1  0
 40 41  2  0
 41 42  1  0
 42 43  2  0
 43 44  1  0
 44 45  2  0
 45 46  1  0
 46 47  2  0
 14  4  1  0
 19 15  2  0
 41 27  1  0
 47 42  1  0
 14  9  1  0
 38 30  1  0
 38 34  1  0
  3 48  1  0
  5 49  1  0
  6 50  1  0
 10 51  1  0
 11 52  1  0
 12 53  1  0
 13 54  1  0
 17 55  1  0
 20 56  1  0
 20 57  1  0
 21 58  1  0
 22 59  1  0
 22 60  1  0
 23 61  1  0
 23 62  1  0
 24 63  1  0
 25 64  1  0
 26 65  1  0
 26 66  1  0
 31 67  1  0
 32 68  1  0
 33 69  1  0
 37 70  1  0
 43 71  1  0
 44 72  1  0
 45 73  1  0
 47 74  1  0
M  END
>  <Energy>  (868) 
143.45517115585037

>  <compound_id>  (868) 
4405

>  <target_id>  (868) 
1

>  <reference_id>  (868) 
196

>  <inspiration_ids>  (868) 
[154, 196]

>  <energy_score>  (868) 
-89.51591477950194

>  <distance_score>  (868) 
1.6888395410528132

>  <path>  (868) 
/opt/xchem-fragalysis-2/maxwin/BulkDock/SCRATCH/505735/C4405-P196/C4405-P196.minimised.mol

>  <scratch_subdir>  (868) 
/opt/xchem-fragalysis-2/maxwin/BulkDock/SCRATCH/505735/C4405-P196

>  <fragmenstein_runtime>  (868) 
38.24847602844238

>  <fragmenstein_outcome>  (868) 
too moved

>  <fragmenstein_mode>  (868) 
expansion

>  <fragmenstein_error>  (868) 


$$$$
C4406-P154
     RDKit          3D

 74 80  0  0  0  0  0  0  0  0999 V2000
    2.2217   -3.5377   33.3799 C   0  0  0  0  0  0  0  0  0  0  0  0
    1.6070   -2.4151   32.9796 C   0  0  0  0  0  0  0  0  0  0  0  0
    1.5756   -1.8327   31.5779 C   0  0  0  0  0  0  0  0  0  0  0  0
    2.4617   -2.5579   30.5451 C   0  0  0  0  0  0  0  0  0  0  0  0
    2.6349   -1.7854   29.2359 C   0  0  0  0  0  0  0  0  0  0  0  0
    1.5107   -1.9460   28.3074 N   0  0  0  0  0  0  0  0  0  0  0  0
    1.7483   -3.0056   27.2979 C   0  0  0  0  0  0  0  0  0  0  0  0
    2.9574   -2.7151   26.4949 C   0  0  0  0  0  0  0  0  0  0  0  0
    3.1548   -1.4218   26.0889 O   0  0  0  0  0  0  0  0  0  0  0  0
    4.4047   -1.4333   25.5554 C   0  0  0  0  0  0  0  0  0  0  0  0
    5.0330   -2.5851   25.6416 N   0  0  0  0  0  0  0  0  0  0  0  0
    4.0772   -3.4410   26.1586 C   0  0  0  0  0  0  0  0  0  0  0  0
    4.2890   -4.8774   26.3341 C   0  0  0  0  0  0  0  0  0  0  0  0
    3.3470   -5.6129   26.4003 O   0  0  0  0  0  0  0  0  0  0  0  0
    5.6920   -5.1514   26.3614 N   0  0  0  0  0  0  0  0  0  0  0  0
    6.3700   -6.3279   26.3796 C   0  0  0  0  0  0  0  0  0  0  0  0
    5.9779   -7.3413   25.5963 C   0  0  0  0  0  0  0  0  0  0  0  0
    6.7046   -8.4946   25.4791 N   0  0  0  0  0  0  0  0  0  0  0  0
    7.8838   -8.7375   26.1376 C   0  0  0  0  0  0  0  0  0  0  0  0
    8.5733   -9.7247   25.9112 O   0  0  0  0  0  0  0  0  0  0  0  0
    8.2905   -7.7116   27.1342 C   0  0  0  0  0  0  0  0  0  0  0  0
    9.3729   -7.9689   27.9839 C   0  0  0  0  0  0  0  0  0  0  0  0
    9.7472   -7.0197   28.9327 C   0  0  0  0  0  0  0  0  0  0  0  0
    9.0501   -5.8158   29.0243 C   0  0  0  0  0  0  0  0  0  0  0  0
    7.9702   -5.5577   28.1735 C   0  0  0  0  0  0  0  0  0  0  0  0
    7.5714   -6.5041   27.2171 C   0  0  0  0  0  0  0  0  0  0  0  0
    0.2065   -1.6140   31.1257 N   0  0  0  0  0  0  0  0  0  0  0  0
   -0.4095   -0.4155   30.8740 C   0  0  0  0  0  0  0  0  0  0  0  0
    0.2749    1.1308   31.2484 S   0  0  0  0  0  0  0  0  0  0  0  0
    0.6429    1.6942   29.6459 C   0  0  0  0  0  0  0  0  0  0  0  0
   -0.3031    1.8564   28.6964 C   0  0  0  0  0  0  0  0  0  0  0  0
    0.0573    2.4193   27.4037 C   0  0  0  0  0  0  0  0  0  0  0  0
    1.3297    2.7355   27.1014 C   0  0  0  0  0  0  0  0  0  0  0  0
    2.3434    2.5401   28.0738 C   0  0  0  0  0  0  0  0  0  0  0  0
    3.6448    2.7303   28.0498 N   0  0  0  0  0  0  0  0  0  0  0  0
    4.1380    2.4250   29.2966 N   0  0  0  0  0  0  0  0  0  0  0  0
    3.1246    2.0603   30.0486 C   0  0  0  0  0  0  0  0  0  0  0  0
    1.9601    2.0661   29.3228 N   0  0  0  0  0  0  0  0  0  0  0  0
   -1.6339   -0.6236   30.4515 N   0  0  0  0  0  0  0  0  0  0  0  0
   -1.8384   -1.9850   30.4276 N   0  0  0  0  0  0  0  0  0  0  0  0
   -0.7416   -2.5809   30.8566 C   0  0  0  0  0  0  0  0  0  0  0  0
   -0.5567   -4.0082   31.0587 C   0  0  0  0  0  0  0  0  0  0  0  0
   -0.6904   -4.5880   32.3199 C   0  0  0  0  0  0  0  0  0  0  0  0
   -0.4560   -5.9516   32.4929 C   0  0  0  0  0  0  0  0  0  0  0  0
   -0.1062   -6.7008   31.3861 C   0  0  0  0  0  0  0  0  0  0  0  0
    0.0252   -6.1816   30.1497 N   0  0  0  0  0  0  0  0  0  0  0  0
   -0.2135   -4.8501   30.0120 C   0  0  0  0  0  0  0  0  0  0  0  0
    2.7707   -4.1858   32.7045 H   0  0  0  0  0  0  0  0  0  0  0  0
    2.1778   -3.8454   34.4216 H   0  0  0  0  0  0  0  0  0  0  0  0
    1.0797   -1.8337   33.7371 H   0  0  0  0  0  0  0  0  0  0  0  0
    2.0317   -0.8438   31.7012 H   0  0  0  0  0  0  0  0  0  0  0  0
    3.4677   -2.6575   30.9772 H   0  0  0  0  0  0  0  0  0  0  0  0
    2.1322   -3.5805   30.3451 H   0  0  0  0  0  0  0  0  0  0  0  0
    2.7373   -0.7218   29.4664 H   0  0  0  0  0  0  0  0  0  0  0  0
    3.5970   -2.0652   28.7949 H   0  0  0  0  0  0  0  0  0  0  0  0
    1.4161   -1.0890   27.7536 H   0  0  0  0  0  0  0  0  0  0  0  0
    1.8443   -3.9678   27.8088 H   0  0  0  0  0  0  0  0  0  0  0  0
    0.8757   -3.0715   26.6431 H   0  0  0  0  0  0  0  0  0  0  0  0
    4.7573   -0.5036   25.1315 H   0  0  0  0  0  0  0  0  0  0  0  0
    6.2026   -4.2684   26.3665 H   0  0  0  0  0  0  0  0  0  0  0  0
    5.1202   -7.2717   24.9309 H   0  0  0  0  0  0  0  0  0  0  0  0
    6.4322   -9.1414   24.7330 H   0  0  0  0  0  0  0  0  0  0  0  0
    9.9156   -8.9088   27.9081 H   0  0  0  0  0  0  0  0  0  0  0  0
   10.5877   -7.2156   29.5938 H   0  0  0  0  0  0  0  0  0  0  0  0
    9.3483   -5.0724   29.7599 H   0  0  0  0  0  0  0  0  0  0  0  0
    7.4407   -4.6153   28.2818 H   0  0  0  0  0  0  0  0  0  0  0  0
   -1.3511    1.6143   28.8560 H   0  0  0  0  0  0  0  0  0  0  0  0
   -0.7451    2.5959   26.6924 H   0  0  0  0  0  0  0  0  0  0  0  0
    1.6010    3.1619   26.1420 H   0  0  0  0  0  0  0  0  0  0  0  0
    3.1836    1.7797   31.0893 H   0  0  0  0  0  0  0  0  0  0  0  0
   -0.9762   -3.9840   33.1795 H   0  0  0  0  0  0  0  0  0  0  0  0
   -0.5605   -6.4098   33.4706 H   0  0  0  0  0  0  0  0  0  0  0  0
    0.0707   -7.7683   31.4611 H   0  0  0  0  0  0  0  0  0  0  0  0
   -0.1337   -4.4666   28.9983 H   0  0  0  0  0  0  0  0  0  0  0  0
  1  2  2  0
  2  3  1  0
  3  4  1  0
  4  5  1  0
  5  6  1  0
  6  7  1  0
  7  8  1  0
  8  9  1  0
  9 10  1  0
 10 11  2  0
 11 12  1  0
 12 13  1  0
 13 14  2  0
 13 15  1  0
 15 16  1  0
 16 17  2  0
 17 18  1  0
 18 19  1  0
 19 20  2  0
 19 21  1  0
 21 22  2  0
 22 23  1  0
 23 24  2  0
 24 25  1  0
 25 26  2  0
  3 27  1  0
 27 28  1  0
 28 29  1  0
 29 30  1  0
 30 31  2  0
 31 32  1  0
 32 33  2  0
 33 34  1  0
 34 35  2  0
 35 36  1  0
 36 37  2  0
 37 38  1  0
 28 39  2  0
 39 40  1  0
 40 41  2  0
 41 42  1  0
 42 43  2  0
 43 44  1  0
 44 45  2  0
 45 46  1  0
 46 47  2  0
 12  8  2  0
 26 16  1  0
 41 27  1  0
 47 42  1  0
 26 21  1  0
 38 30  1  0
 38 34  1  0
  1 48  1  0
  1 49  1  0
  2 50  1  0
  3 51  1  0
  4 52  1  0
  4 53  1  0
  5 54  1  0
  5 55  1  0
  6 56  1  0
  7 57  1  0
  7 58  1  0
 10 59  1  0
 15 60  1  0
 17 61  1  0
 18 62  1  0
 22 63  1  0
 23 64  1  0
 24 65  1  0
 25 66  1  0
 31 67  1  0
 32 68  1  0
 33 69  1  0
 37 70  1  0
 43 71  1  0
 44 72  1  0
 45 73  1  0
 47 74  1  0
M  END
>  <Energy>  (869) 
131.5474702232473

>  <compound_id>  (869) 
4406

>  <target_id>  (869) 
1

>  <reference_id>  (869) 
154

>  <inspiration_ids>  (869) 
[154, 197]

>  <energy_score>  (869) 
-99.79495340685548

>  <distance_score>  (869) 
1.9923435284431408

>  <path>  (869) 
/opt/xchem-fragalysis-2/maxwin/BulkDock/SCRATCH/505735/C4406-P154/C4406-P154.minimised.mol

>  <scratch_subdir>  (869) 
/opt/xchem-fragalysis-2/maxwin/BulkDock/SCRATCH/505735/C4406-P154

>  <fragmenstein_runtime>  (869) 
42.476598501205444

>  <fragmenstein_outcome>  (869) 
too moved

>  <fragmenstein_mode>  (869) 
expansion

>  <fragmenstein_error>  (869) 


$$$$
C4406-P197
     RDKit          3D

 74 80  0  0  0  0  0  0  0  0999 V2000
    1.5354   -4.2557   31.1185 C   0  0  0  0  0  0  0  0  0  0  0  0
    0.6935   -3.3245   31.5884 C   0  0  0  0  0  0  0  0  0  0  0  0
   -0.5018   -2.7471   30.8690 C   0  0  0  0  0  0  0  0  0  0  0  0
   -0.7415   -3.2220   29.4149 C   0  0  0  0  0  0  0  0  0  0  0  0
    0.2714   -2.6975   28.3589 C   0  0  0  0  0  0  0  0  0  0  0  0
    0.4185   -3.5954   27.2180 N   0  0  0  0  0  0  0  0  0  0  0  0
    1.1402   -3.0394   26.0826 C   0  0  0  0  0  0  0  0  0  0  0  0
    2.5533   -2.7007   26.3547 C   0  0  0  0  0  0  0  0  0  0  0  0
    2.8788   -1.3718   26.4114 O   0  0  0  0  0  0  0  0  0  0  0  0
    4.2260   -1.3623   26.5884 C   0  0  0  0  0  0  0  0  0  0  0  0
    4.7799   -2.5464   26.7205 N   0  0  0  0  0  0  0  0  0  0  0  0
    3.7161   -3.4209   26.5230 C   0  0  0  0  0  0  0  0  0  0  0  0
    3.8812   -4.8705   26.4445 C   0  0  0  0  0  0  0  0  0  0  0  0
    3.0105   -5.5758   26.1249 O   0  0  0  0  0  0  0  0  0  0  0  0
    5.3478   -5.1869   26.7820 N   0  0  0  0  0  0  0  0  0  0  0  0
    6.0371   -6.3539   26.7106 C   0  0  0  0  0  0  0  0  0  0  0  0
    5.8270   -7.2126   25.7036 C   0  0  0  0  0  0  0  0  0  0  0  0
    6.5483   -8.3674   25.5668 N   0  0  0  0  0  0  0  0  0  0  0  0
    7.5186   -8.7844   26.4461 C   0  0  0  0  0  0  0  0  0  0  0  0
    8.1644   -9.8108   26.2715 O   0  0  0  0  0  0  0  0  0  0  0  0
    7.7299   -7.9140   27.6359 C   0  0  0  0  0  0  0  0  0  0  0  0
    8.5966   -8.3320   28.6501 C   0  0  0  0  0  0  0  0  0  0  0  0
    8.7620   -7.5461   29.7899 C   0  0  0  0  0  0  0  0  0  0  0  0
    8.0760   -6.3398   29.9107 C   0  0  0  0  0  0  0  0  0  0  0  0
    7.2168   -5.9163   28.8947 C   0  0  0  0  0  0  0  0  0  0  0  0
    7.0284   -6.6994   27.7439 C   0  0  0  0  0  0  0  0  0  0  0  0
   -0.6120   -1.2971   31.0156 N   0  0  0  0  0  0  0  0  0  0  0  0
   -0.0191   -0.2978   30.2943 C   0  0  0  0  0  0  0  0  0  0  0  0
    1.6836   -0.0950   30.0600 S   0  0  0  0  0  0  0  0  0  0  0  0
    2.0982    0.2778   31.7063 C   0  0  0  0  0  0  0  0  0  0  0  0
    2.8881   -0.5644   32.4064 C   0  0  0  0  0  0  0  0  0  0  0  0
    3.1971   -0.2788   33.7991 C   0  0  0  0  0  0  0  0  0  0  0  0
    2.7081    0.8125   34.4159 C   0  0  0  0  0  0  0  0  0  0  0  0
    1.8890    1.7174   33.6908 C   0  0  0  0  0  0  0  0  0  0  0  0
    1.2798    2.8286   34.0395 N   0  0  0  0  0  0  0  0  0  0  0  0
    0.6398    3.3223   32.9284 N   0  0  0  0  0  0  0  0  0  0  0  0
    0.8786    2.5024   31.9291 C   0  0  0  0  0  0  0  0  0  0  0  0
    1.6303    1.4369   32.3529 N   0  0  0  0  0  0  0  0  0  0  0  0
   -0.9357    0.5815   29.9713 N   0  0  0  0  0  0  0  0  0  0  0  0
   -2.0450    0.2955   30.7337 N   0  0  0  0  0  0  0  0  0  0  0  0
   -1.7226   -0.6839   31.5571 C   0  0  0  0  0  0  0  0  0  0  0  0
   -2.2911   -0.9792   32.8717 C   0  0  0  0  0  0  0  0  0  0  0  0
   -3.6448   -0.8215   33.1556 C   0  0  0  0  0  0  0  0  0  0  0  0
   -4.1318   -1.0825   34.4365 C   0  0  0  0  0  0  0  0  0  0  0  0
   -3.2343   -1.4720   35.4152 C   0  0  0  0  0  0  0  0  0  0  0  0
   -1.9094   -1.5946   35.2015 N   0  0  0  0  0  0  0  0  0  0  0  0
   -1.4751   -1.3388   33.9452 C   0  0  0  0  0  0  0  0  0  0  0  0
    2.3544   -4.6169   31.7356 H   0  0  0  0  0  0  0  0  0  0  0  0
    1.4563   -4.6858   30.1240 H   0  0  0  0  0  0  0  0  0  0  0  0
    0.8571   -2.9817   32.6087 H   0  0  0  0  0  0  0  0  0  0  0  0
   -1.3601   -3.1529   31.4260 H   0  0  0  0  0  0  0  0  0  0  0  0
   -0.7440   -4.3183   29.4025 H   0  0  0  0  0  0  0  0  0  0  0  0
   -1.7448   -2.9099   29.1003 H   0  0  0  0  0  0  0  0  0  0  0  0
   -0.0707   -1.7196   28.0038 H   0  0  0  0  0  0  0  0  0  0  0  0
    1.2575   -2.5922   28.8137 H   0  0  0  0  0  0  0  0  0  0  0  0
   -0.5067   -3.9052   26.9056 H   0  0  0  0  0  0  0  0  0  0  0  0
    0.6021   -2.1641   25.7262 H   0  0  0  0  0  0  0  0  0  0  0  0
    1.1042   -3.7632   25.2619 H   0  0  0  0  0  0  0  0  0  0  0  0
    4.7025   -0.3928   26.6143 H   0  0  0  0  0  0  0  0  0  0  0  0
    5.8130   -4.3394   27.1033 H   0  0  0  0  0  0  0  0  0  0  0  0
    5.1164   -7.0210   24.9034 H   0  0  0  0  0  0  0  0  0  0  0  0
    6.3687   -8.9394   24.7355 H   0  0  0  0  0  0  0  0  0  0  0  0
    9.1298   -9.2751   28.5539 H   0  0  0  0  0  0  0  0  0  0  0  0
    9.4298   -7.8744   30.5824 H   0  0  0  0  0  0  0  0  0  0  0  0
    8.2092   -5.7289   30.8003 H   0  0  0  0  0  0  0  0  0  0  0  0
    6.6839   -4.9801   29.0329 H   0  0  0  0  0  0  0  0  0  0  0  0
    3.3040   -1.4711   31.9755 H   0  0  0  0  0  0  0  0  0  0  0  0
    3.8340   -0.9775   34.3349 H   0  0  0  0  0  0  0  0  0  0  0  0
    2.9297    1.0302   35.4554 H   0  0  0  0  0  0  0  0  0  0  0  0
    0.5322    2.6312   30.9133 H   0  0  0  0  0  0  0  0  0  0  0  0
   -4.3329   -0.4856   32.3938 H   0  0  0  0  0  0  0  0  0  0  0  0
   -5.1867   -0.9800   34.6658 H   0  0  0  0  0  0  0  0  0  0  0  0
   -3.5646   -1.6923   36.4260 H   0  0  0  0  0  0  0  0  0  0  0  0
   -0.3965   -1.4077   33.8434 H   0  0  0  0  0  0  0  0  0  0  0  0
  1  2  2  0
  2  3  1  0
  3  4  1  0
  4  5  1  0
  5  6  1  0
  6  7  1  0
  7  8  1  0
  8  9  1  0
  9 10  1  0
 10 11  2  0
 11 12  1  0
 12 13  1  0
 13 14  2  0
 13 15  1  0
 15 16  1  0
 16 17  2  0
 17 18  1  0
 18 19  1  0
 19 20  2  0
 19 21  1  0
 21 22  2  0
 22 23  1  0
 23 24  2  0
 24 25  1  0
 25 26  2  0
  3 27  1  0
 27 28  1  0
 28 29  1  0
 29 30  1  0
 30 31  2  0
 31 32  1  0
 32 33  2  0
 33 34  1  0
 34 35  2  0
 35 36  1  0
 36 37  2  0
 37 38  1  0
 28 39  2  0
 39 40  1  0
 40 41  2  0
 41 42  1  0
 42 43  2  0
 43 44  1  0
 44 45  2  0
 45 46  1  0
 46 47  2  0
 12  8  2  0
 26 16  1  0
 41 27  1  0
 47 42  1  0
 26 21  1  0
 38 30  1  0
 38 34  1  0
  1 48  1  0
  1 49  1  0
  2 50  1  0
  3 51  1  0
  4 52  1  0
  4 53  1  0
  5 54  1  0
  5 55  1  0
  6 56  1  0
  7 57  1  0
  7 58  1  0
 10 59  1  0
 15 60  1  0
 17 61  1  0
 18 62  1  0
 22 63  1  0
 23 64  1  0
 24 65  1  0
 25 66  1  0
 31 67  1  0
 32 68  1  0
 33 69  1  0
 37 70  1  0
 43 71  1  0
 44 72  1  0
 45 73  1  0
 47 74  1  0
M  END
>  <Energy>  (870) 
150.83946902376516

>  <compound_id>  (870) 
4406

>  <target_id>  (870) 
1

>  <reference_id>  (870) 
197

>  <inspiration_ids>  (870) 
[154, 197]

>  <energy_score>  (870) 
-75.4097618670321

>  <distance_score>  (870) 
1.2089844695611798

>  <path>  (870) 
/opt/xchem-fragalysis-2/maxwin/BulkDock/SCRATCH/505735/C4406-P197/C4406-P197.minimised.mol

>  <scratch_subdir>  (870) 
/opt/xchem-fragalysis-2/maxwin/BulkDock/SCRATCH/505735/C4406-P197

>  <fragmenstein_runtime>  (870) 
33.234774351119995

>  <fragmenstein_outcome>  (870) 
too moved

>  <fragmenstein_mode>  (870) 
expansion

>  <fragmenstein_error>  (870) 


$$$$
C4407-P154
     RDKit          3D

 56 59  0  0  0  0  0  0  0  0999 V2000
    4.0288   -1.4195   25.2547 N   0  0  0  0  0  0  0  0  0  0  0  0
    2.9606   -2.4203   25.2819 C   0  0  0  0  0  0  0  0  0  0  0  0
    2.5251   -2.7401   26.7046 C   0  0  0  0  0  0  0  0  0  0  0  0
    2.1632   -1.5263   27.4055 O   0  0  0  0  0  0  0  0  0  0  0  0
    2.8530   -1.5364   28.6587 C   0  0  0  0  0  0  0  0  0  0  0  0
    3.2143   -3.0103   28.9520 C   0  0  0  0  0  0  0  0  0  0  0  0
    4.3048   -3.1309   30.0029 C   0  0  0  0  0  0  0  0  0  0  0  0
    3.6750   -2.8171   31.3477 C   0  0  0  0  0  0  0  0  0  0  0  0
    2.2939   -3.4855   31.4690 C   0  0  0  0  0  0  0  0  0  0  0  0
    1.2011   -2.9692   30.5311 N   0  0  0  0  0  0  0  0  0  0  0  0
   -0.0962   -3.1929   31.1139 C   0  0  0  0  0  0  0  0  0  0  0  0
   -0.8492   -4.1301   31.0148 O   0  0  0  0  0  0  0  0  0  0  0  0
   -0.4848   -1.9059   31.8758 C   0  0  0  0  0  0  0  0  0  0  0  0
   -0.9860   -2.2510   33.5707 S   0  0  0  0  0  0  0  0  0  0  0  0
   -1.8135   -1.1219   30.9768 Cl  0  0  0  0  0  0  0  0  0  0  0  0
    1.9840   -3.7812   29.5219 C   0  0  0  0  0  0  0  0  0  0  0  0
    3.6383   -3.3946   27.5375 C   0  0  0  0  0  0  0  0  0  0  0  0
    3.8423   -4.8611   27.1491 C   0  0  0  0  0  0  0  0  0  0  0  0
    2.9441   -5.4671   26.6425 O   0  0  0  0  0  0  0  0  0  0  0  0
    5.2116   -5.2442   27.4048 N   0  0  0  0  0  0  0  0  0  0  0  0
    5.9067   -6.3721   27.0628 C   0  0  0  0  0  0  0  0  0  0  0  0
    5.5601   -7.1197   26.0006 C   0  0  0  0  0  0  0  0  0  0  0  0
    6.3773   -8.1023   25.4967 N   0  0  0  0  0  0  0  0  0  0  0  0
    7.6283   -8.3948   25.9854 C   0  0  0  0  0  0  0  0  0  0  0  0
    8.4103   -9.1493   25.4150 O   0  0  0  0  0  0  0  0  0  0  0  0
    7.9928   -7.7206   27.2596 C   0  0  0  0  0  0  0  0  0  0  0  0
    9.1504   -8.1173   27.9409 C   0  0  0  0  0  0  0  0  0  0  0  0
    9.4857   -7.5124   29.1505 C   0  0  0  0  0  0  0  0  0  0  0  0
    8.6696   -6.5136   29.6768 C   0  0  0  0  0  0  0  0  0  0  0  0
    7.5140   -6.1168   28.9965 C   0  0  0  0  0  0  0  0  0  0  0  0
    7.1580   -6.7120   27.7744 C   0  0  0  0  0  0  0  0  0  0  0  0
    4.0932   -1.0578   24.2891 H   0  0  0  0  0  0  0  0  0  0  0  0
    3.6817   -0.6040   25.7651 H   0  0  0  0  0  0  0  0  0  0  0  0
    2.1117   -2.0563   24.7062 H   0  0  0  0  0  0  0  0  0  0  0  0
    3.3093   -3.3278   24.8052 H   0  0  0  0  0  0  0  0  0  0  0  0
    1.6225   -3.3592   26.6516 H   0  0  0  0  0  0  0  0  0  0  0  0
    2.2312   -1.0445   29.4107 H   0  0  0  0  0  0  0  0  0  0  0  0
    3.7547   -0.9217   28.5409 H   0  0  0  0  0  0  0  0  0  0  0  0
    4.6937   -4.1559   30.0253 H   0  0  0  0  0  0  0  0  0  0  0  0
    5.1537   -2.4673   29.8053 H   0  0  0  0  0  0  0  0  0  0  0  0
    4.3305   -3.1590   32.1563 H   0  0  0  0  0  0  0  0  0  0  0  0
    3.5634   -1.7319   31.4631 H   0  0  0  0  0  0  0  0  0  0  0  0
    1.9480   -3.1742   32.4675 H   0  0  0  0  0  0  0  0  0  0  0  0
    2.3206   -4.5816   31.5990 H   0  0  0  0  0  0  0  0  0  0  0  0
    0.3435   -1.1916   31.8976 H   0  0  0  0  0  0  0  0  0  0  0  0
   -1.8118   -3.2714   33.2815 H   0  0  0  0  0  0  0  0  0  0  0  0
    1.2404   -3.8583   28.7165 H   0  0  0  0  0  0  0  0  0  0  0  0
    2.1446   -4.8532   29.7299 H   0  0  0  0  0  0  0  0  0  0  0  0
    4.5805   -2.8697   27.3199 H   0  0  0  0  0  0  0  0  0  0  0  0
    5.7145   -4.4472   27.7760 H   0  0  0  0  0  0  0  0  0  0  0  0
    4.6733   -6.9268   25.4019 H   0  0  0  0  0  0  0  0  0  0  0  0
    6.1176   -8.5496   24.6076 H   0  0  0  0  0  0  0  0  0  0  0  0
    9.7810   -8.9040   27.5320 H   0  0  0  0  0  0  0  0  0  0  0  0
   10.3831   -7.8223   29.6802 H   0  0  0  0  0  0  0  0  0  0  0  0
    8.9308   -6.0465   30.6233 H   0  0  0  0  0  0  0  0  0  0  0  0
    6.8913   -5.3546   29.4530 H   0  0  0  0  0  0  0  0  0  0  0  0
  1  2  1  0
  2  3  1  0
  3  4  1  0
  4  5  1  0
  5  6  1  0
  6  7  1  0
  7  8  1  0
  8  9  1  0
  9 10  1  0
 10 11  1  0
 11 12  2  0
 11 13  1  0
 13 14  1  0
 13 15  1  0
 10 16  1  0
  6 17  1  0
 17 18  1  0
 18 19  2  0
 18 20  1  0
 20 21  1  0
 21 22  2  0
 22 23  1  0
 23 24  1  0
 24 25  2  0
 24 26  1  0
 26 27  2  0
 27 28  1  0
 28 29  2  0
 29 30  1  0
 30 31  2  0
 17  3  1  0
 31 21  1  0
 16  6  1  0
 31 26  1  0
  1 32  1  0
  1 33  1  0
  2 34  1  0
  2 35  1  0
  3 36  1  0
  5 37  1  0
  5 38  1  0
  7 39  1  0
  7 40  1  0
  8 41  1  0
  8 42  1  0
  9 43  1  0
  9 44  1  0
 13 45  1  0
 14 46  1  0
 16 47  1  0
 16 48  1  0
 17 49  1  0
 20 50  1  0
 22 51  1  0
 23 52  1  0
 27 53  1  0
 28 54  1  0
 29 55  1  0
 30 56  1  0
M  END
>  <Energy>  (871) 
169.54521071634704

>  <compound_id>  (871) 
4407

>  <target_id>  (871) 
1

>  <reference_id>  (871) 
154

>  <inspiration_ids>  (871) 
[154, 199]

>  <energy_score>  (871) 
-15.048436597378611

>  <distance_score>  (871) 
1.927405599072567

>  <path>  (871) 
/opt/xchem-fragalysis-2/maxwin/BulkDock/SCRATCH/505735/C4407-P154/C4407-P154.minimised.mol

>  <scratch_subdir>  (871) 
/opt/xchem-fragalysis-2/maxwin/BulkDock/SCRATCH/505735/C4407-P154

>  <fragmenstein_runtime>  (871) 
14.238853693008423

>  <fragmenstein_outcome>  (871) 
too moved

>  <fragmenstein_mode>  (871) 
expansion

>  <fragmenstein_error>  (871) 


$$$$
C4407-P199
     RDKit          3D

 56 59  0  0  0  0  0  0  0  0999 V2000
    4.7878   -1.7529   24.9978 N   0  0  0  0  0  0  0  0  0  0  0  0
    4.6623   -2.6867   26.0936 C   0  0  0  0  0  0  0  0  0  0  0  0
    5.4951   -2.1599   27.2729 C   0  0  0  0  0  0  0  0  0  0  0  0
    5.0283   -0.8455   27.6315 O   0  0  0  0  0  0  0  0  0  0  0  0
    3.8714   -1.0291   28.4499 C   0  0  0  0  0  0  0  0  0  0  0  0
    4.0843   -2.3471   29.2345 C   0  0  0  0  0  0  0  0  0  0  0  0
    4.3189   -2.0420   30.7156 C   0  0  0  0  0  0  0  0  0  0  0  0
    2.9931   -1.6104   31.3164 C   0  0  0  0  0  0  0  0  0  0  0  0
    1.8503   -2.5114   30.8238 C   0  0  0  0  0  0  0  0  0  0  0  0
    1.4871   -2.4793   29.3352 N   0  0  0  0  0  0  0  0  0  0  0  0
    0.1354   -2.9277   29.1482 C   0  0  0  0  0  0  0  0  0  0  0  0
   -0.3014   -4.0344   28.9408 O   0  0  0  0  0  0  0  0  0  0  0  0
   -0.8809   -1.7492   29.1158 C   0  0  0  0  0  0  0  0  0  0  0  0
   -1.8889   -1.7101   30.6303 S   0  0  0  0  0  0  0  0  0  0  0  0
   -0.1488   -0.1477   28.8640 Cl  0  0  0  0  0  0  0  0  0  0  0  0
    2.7958   -3.2220   29.2205 C   0  0  0  0  0  0  0  0  0  0  0  0
    5.3686   -2.9497   28.5676 C   0  0  0  0  0  0  0  0  0  0  0  0
    5.4874   -4.4914   28.5036 C   0  0  0  0  0  0  0  0  0  0  0  0
    4.9129   -5.1175   29.3507 O   0  0  0  0  0  0  0  0  0  0  0  0
    6.3784   -4.9270   27.4486 N   0  0  0  0  0  0  0  0  0  0  0  0
    6.7535   -6.1778   27.0530 C   0  0  0  0  0  0  0  0  0  0  0  0
    6.6276   -6.5293   25.7616 C   0  0  0  0  0  0  0  0  0  0  0  0
    7.0257   -7.7506   25.2864 N   0  0  0  0  0  0  0  0  0  0  0  0
    7.7098   -8.6770   26.0347 C   0  0  0  0  0  0  0  0  0  0  0  0
    8.1592   -9.7071   25.5449 O   0  0  0  0  0  0  0  0  0  0  0  0
    7.8940   -8.3412   27.4730 C   0  0  0  0  0  0  0  0  0  0  0  0
    8.5942   -9.2328   28.2909 C   0  0  0  0  0  0  0  0  0  0  0  0
    8.7739   -8.9509   29.6421 C   0  0  0  0  0  0  0  0  0  0  0  0
    8.2725   -7.7671   30.1707 C   0  0  0  0  0  0  0  0  0  0  0  0
    7.5976   -6.8609   29.3474 C   0  0  0  0  0  0  0  0  0  0  0  0
    7.3831   -7.1351   27.9871 C   0  0  0  0  0  0  0  0  0  0  0  0
    4.6348   -0.7885   25.3110 H   0  0  0  0  0  0  0  0  0  0  0  0
    4.1395   -1.8820   24.2215 H   0  0  0  0  0  0  0  0  0  0  0  0
    3.6290   -2.7994   26.4038 H   0  0  0  0  0  0  0  0  0  0  0  0
    4.9928   -3.6654   25.7482 H   0  0  0  0  0  0  0  0  0  0  0  0
    6.5453   -2.0574   26.9730 H   0  0  0  0  0  0  0  0  0  0  0  0
    3.0015   -1.0600   27.7857 H   0  0  0  0  0  0  0  0  0  0  0  0
    3.7709   -0.1426   29.0818 H   0  0  0  0  0  0  0  0  0  0  0  0
    4.6728   -2.9430   31.2329 H   0  0  0  0  0  0  0  0  0  0  0  0
    5.0797   -1.2670   30.8639 H   0  0  0  0  0  0  0  0  0  0  0  0
    3.0532   -1.6494   32.4101 H   0  0  0  0  0  0  0  0  0  0  0  0
    2.7727   -0.5697   31.0522 H   0  0  0  0  0  0  0  0  0  0  0  0
    0.9660   -2.0815   31.3158 H   0  0  0  0  0  0  0  0  0  0  0  0
    1.8527   -3.5239   31.2651 H   0  0  0  0  0  0  0  0  0  0  0  0
   -1.5445   -1.9137   28.2618 H   0  0  0  0  0  0  0  0  0  0  0  0
   -2.6352   -0.6681   30.2409 H   0  0  0  0  0  0  0  0  0  0  0  0
    2.7137   -3.6113   28.1950 H   0  0  0  0  0  0  0  0  0  0  0  0
    2.8401   -4.1727   29.7754 H   0  0  0  0  0  0  0  0  0  0  0  0
    6.2245   -2.6455   29.1910 H   0  0  0  0  0  0  0  0  0  0  0  0
    6.6128   -4.1351   26.8658 H   0  0  0  0  0  0  0  0  0  0  0  0
    6.1758   -5.8793   25.0183 H   0  0  0  0  0  0  0  0  0  0  0  0
    6.7847   -8.0250   24.3298 H   0  0  0  0  0  0  0  0  0  0  0  0
    9.0067  -10.1436   27.8674 H   0  0  0  0  0  0  0  0  0  0  0  0
    9.3053   -9.6567   30.2774 H   0  0  0  0  0  0  0  0  0  0  0  0
    8.4149   -7.5426   31.2248 H   0  0  0  0  0  0  0  0  0  0  0  0
    7.2571   -5.9357   29.7988 H   0  0  0  0  0  0  0  0  0  0  0  0
  1  2  1  0
  2  3  1  0
  3  4  1  0
  4  5  1  0
  5  6  1  0
  6  7  1  0
  7  8  1  0
  8  9  1  0
  9 10  1  0
 10 11  1  0
 11 12  2  0
 11 13  1  0
 13 14  1  0
 13 15  1  0
 10 16  1  0
  6 17  1  0
 17 18  1  0
 18 19  2  0
 18 20  1  0
 20 21  1  0
 21 22  2  0
 22 23  1  0
 23 24  1  0
 24 25  2  0
 24 26  1  0
 26 27  2  0
 27 28  1  0
 28 29  2  0
 29 30  1  0
 30 31  2  0
 17  3  1  0
 31 21  1  0
 16  6  1  0
 31 26  1  0
  1 32  1  0
  1 33  1  0
  2 34  1  0
  2 35  1  0
  3 36  1  0
  5 37  1  0
  5 38  1  0
  7 39  1  0
  7 40  1  0
  8 41  1  0
  8 42  1  0
  9 43  1  0
  9 44  1  0
 13 45  1  0
 14 46  1  0
 16 47  1  0
 16 48  1  0
 17 49  1  0
 20 50  1  0
 22 51  1  0
 23 52  1  0
 27 53  1  0
 28 54  1  0
 29 55  1  0
 30 56  1  0
M  END
>  <Energy>  (872) 
191.27415367892726

>  <compound_id>  (872) 
4407

>  <target_id>  (872) 
1

>  <reference_id>  (872) 
199

>  <inspiration_ids>  (872) 
[154, 199]

>  <energy_score>  (872) 
6.680506365203655

>  <distance_score>  (872) 
2.241110840379402

>  <path>  (872) 
/opt/xchem-fragalysis-2/maxwin/BulkDock/SCRATCH/505735/C4407-P199/C4407-P199.minimised.mol

>  <scratch_subdir>  (872) 
/opt/xchem-fragalysis-2/maxwin/BulkDock/SCRATCH/505735/C4407-P199

>  <fragmenstein_runtime>  (872) 
10.241026163101196

>  <fragmenstein_outcome>  (872) 
too moved

>  <fragmenstein_mode>  (872) 
expansion

>  <fragmenstein_error>  (872) 


$$$$
C4409-P154
     RDKit          3D

 69 73  0  0  0  0  0  0  0  0999 V2000
    1.9938   -3.1910   25.5504 N   0  0  0  0  0  0  0  0  0  0  0  0
    1.5134   -2.9764   26.9087 C   0  0  0  0  0  0  0  0  0  0  0  0
    2.6406   -2.7304   27.8230 C   0  0  0  0  0  0  0  0  0  0  0  0
    2.9781   -1.4178   28.0343 O   0  0  0  0  0  0  0  0  0  0  0  0
    4.0845   -1.4828   28.8179 C   0  0  0  0  0  0  0  0  0  0  0  0
    4.4736   -2.6957   29.1330 N   0  0  0  0  0  0  0  0  0  0  0  0
    3.5380   -3.5137   28.5190 C   0  0  0  0  0  0  0  0  0  0  0  0
    3.7049   -4.9682   28.4790 C   0  0  0  0  0  0  0  0  0  0  0  0
    3.1126   -5.7485   29.2669 N   0  0  0  0  0  0  0  0  0  0  0  0
    2.2331   -5.2860   30.3573 C   0  0  0  0  0  0  0  0  0  0  0  0
    0.7608   -5.5099   30.0252 C   0  0  0  0  0  0  0  0  0  0  0  0
    0.0312   -6.7677   30.5898 C   0  0  0  0  0  0  0  0  0  0  0  0
   -0.2679   -6.8230   32.1209 C   0  0  0  0  0  0  0  0  0  0  0  0
   -1.3411   -7.9271   32.5112 C   0  0  0  0  0  0  0  0  0  0  0  0
   -1.3654   -8.0939   33.9608 N   0  0  0  0  0  0  0  0  0  0  0  0
   -2.3658   -8.6835   35.2078 S   0  0  0  0  0  0  0  0  0  0  0  0
   -3.7064   -8.2057   35.1736 O   0  0  0  0  0  0  0  0  0  0  0  0
   -1.3936   -8.3415   36.2220 O   0  0  0  0  0  0  0  0  0  0  0  0
   -2.8127  -10.8176   35.5993 C   0  0  0  0  0  0  0  0  0  0  0  0
   -1.6330  -12.1367   34.9155 C   0  0  0  0  0  0  0  0  0  0  0  0
   -2.7688  -13.7908   33.9715 C   0  0  0  0  0  0  0  0  0  0  0  0
   -4.5704  -13.2862   34.0740 N   0  0  0  0  0  0  0  0  0  0  0  0
   -4.9239  -10.9368   34.8679 S   0  0  0  0  0  0  0  0  0  0  0  0
   -0.6142   -5.4214   32.6321 C   0  0  0  0  0  0  0  0  0  0  0  0
   -1.3964   -4.6260   31.9622 N   0  0  0  0  0  0  0  0  0  0  0  0
   -1.5145   -3.3370   32.4283 C   0  0  0  0  0  0  0  0  0  0  0  0
   -0.9298   -2.8598   33.5296 C   0  0  0  0  0  0  0  0  0  0  0  0
   -0.1081   -3.7885   34.3136 C   0  0  0  0  0  0  0  0  0  0  0  0
    0.4603   -3.4343   35.3387 O   0  0  0  0  0  0  0  0  0  0  0  0
    0.0122   -5.0421   33.7893 N   0  0  0  0  0  0  0  0  0  0  0  0
    4.7130   -5.2222   27.4598 N   0  0  0  0  0  0  0  0  0  0  0  0
    5.3835   -6.3670   27.1161 C   0  0  0  0  0  0  0  0  0  0  0  0
    5.2508   -6.9733   25.9237 C   0  0  0  0  0  0  0  0  0  0  0  0
    6.0826   -7.9766   25.4955 N   0  0  0  0  0  0  0  0  0  0  0  0
    7.1808   -8.4247   26.1908 C   0  0  0  0  0  0  0  0  0  0  0  0
    7.9578   -9.2612   25.7422 O   0  0  0  0  0  0  0  0  0  0  0  0
    7.3854   -7.8188   27.5316 C   0  0  0  0  0  0  0  0  0  0  0  0
    8.4665   -8.2471   28.3153 C   0  0  0  0  0  0  0  0  0  0  0  0
    8.7142   -7.6458   29.5466 C   0  0  0  0  0  0  0  0  0  0  0  0
    7.8863   -6.6197   29.9918 C   0  0  0  0  0  0  0  0  0  0  0  0
    6.8006   -6.2017   29.2143 C   0  0  0  0  0  0  0  0  0  0  0  0
    6.5191   -6.8023   27.9754 C   0  0  0  0  0  0  0  0  0  0  0  0
    1.1797   -3.1271   24.9248 H   0  0  0  0  0  0  0  0  0  0  0  0
    2.5563   -2.3845   25.2684 H   0  0  0  0  0  0  0  0  0  0  0  0
    0.9381   -3.8382   27.2437 H   0  0  0  0  0  0  0  0  0  0  0  0
    0.8393   -2.1162   26.9346 H   0  0  0  0  0  0  0  0  0  0  0  0
    4.5358   -0.5416   29.0993 H   0  0  0  0  0  0  0  0  0  0  0  0
    2.3921   -4.2273   30.5905 H   0  0  0  0  0  0  0  0  0  0  0  0
    2.4920   -5.8126   31.2805 H   0  0  0  0  0  0  0  0  0  0  0  0
    0.6767   -5.5231   28.9473 H   0  0  0  0  0  0  0  0  0  0  0  0
    0.2208   -4.6019   30.2967 H   0  0  0  0  0  0  0  0  0  0  0  0
    0.5945   -7.6624   30.3040 H   0  0  0  0  0  0  0  0  0  0  0  0
   -0.9255   -6.8479   30.0614 H   0  0  0  0  0  0  0  0  0  0  0  0
    0.6747   -7.1100   32.6077 H   0  0  0  0  0  0  0  0  0  0  0  0
   -2.3009   -7.6985   32.0776 H   0  0  0  0  0  0  0  0  0  0  0  0
   -1.0228   -8.8660   32.0539 H   0  0  0  0  0  0  0  0  0  0  0  0
   -0.4430   -8.2034   34.3805 H   0  0  0  0  0  0  0  0  0  0  0  0
   -0.7775  -12.2964   35.5898 H   0  0  0  0  0  0  0  0  0  0  0  0
   -2.3770  -14.7893   33.8469 H   0  0  0  0  0  0  0  0  0  0  0  0
   -2.1396   -2.6778   31.8316 H   0  0  0  0  0  0  0  0  0  0  0  0
   -1.0410   -1.8466   33.8844 H   0  0  0  0  0  0  0  0  0  0  0  0
    0.5300   -5.6911   34.3605 H   0  0  0  0  0  0  0  0  0  0  0  0
    5.0235   -4.3326   27.0743 H   0  0  0  0  0  0  0  0  0  0  0  0
    4.4990   -6.6653   25.2047 H   0  0  0  0  0  0  0  0  0  0  0  0
    5.9515   -8.3758   24.5570 H   0  0  0  0  0  0  0  0  0  0  0  0
    9.1213   -9.0379   27.9551 H   0  0  0  0  0  0  0  0  0  0  0  0
    9.5614   -7.9653   30.1475 H   0  0  0  0  0  0  0  0  0  0  0  0
    8.0855   -6.1353   30.9447 H   0  0  0  0  0  0  0  0  0  0  0  0
    6.1872   -5.3887   29.5945 H   0  0  0  0  0  0  0  0  0  0  0  0
  1  2  1  0
  2  3  1  0
  3  4  1  0
  4  5  1  0
  5  6  2  0
  6  7  1  0
  7  8  1  0
  8  9  2  3
  9 10  1  0
 10 11  1  0
 11 12  1  0
 12 13  1  0
 13 14  1  0
 14 15  1  0
 15 16  1  0
 16 17  2  0
 16 18  2  0
 16 19  1  0
 19 20  2  0
 20 21  1  0
 21 22  2  0
 22 23  1  0
 13 24  1  0
 24 25  2  0
 25 26  1  0
 26 27  2  0
 27 28  1  0
 28 29  2  0
 28 30  1  0
  8 31  1  0
 31 32  1  0
 32 33  2  0
 33 34  1  0
 34 35  1  0
 35 36  2  0
 35 37  1  0
 37 38  2  0
 38 39  1  0
 39 40  2  0
 40 41  1  0
 41 42  2  0
  7  3  2  0
 23 19  1  0
 30 24  1  0
 42 32  1  0
 42 37  1  0
  1 43  1  0
  1 44  1  0
  2 45  1  0
  2 46  1  0
  5 47  1  0
 10 48  1  0
 10 49  1  0
 11 50  1  0
 11 51  1  0
 12 52  1  0
 12 53  1  0
 13 54  1  0
 14 55  1  0
 14 56  1  0
 15 57  1  0
 20 58  1  0
 21 59  1  0
 26 60  1  0
 27 61  1  0
 30 62  1  0
 31 63  1  0
 33 64  1  0
 34 65  1  0
 38 66  1  0
 39 67  1  0
 40 68  1  0
 41 69  1  0
M  END
>  <Energy>  (873) 
617.66606648741765

>  <compound_id>  (873) 
4409

>  <target_id>  (873) 
1

>  <reference_id>  (873) 
154

>  <inspiration_ids>  (873) 
[154, 201]

>  <energy_score>  (873) 
572.4427151713185

>  <distance_score>  (873) 
1.8107036595716037

>  <path>  (873) 
/opt/xchem-fragalysis-2/maxwin/BulkDock/SCRATCH/505735/C4409-P154/C4409-P154.minimised.mol

>  <scratch_subdir>  (873) 
/opt/xchem-fragalysis-2/maxwin/BulkDock/SCRATCH/505735/C4409-P154

>  <fragmenstein_runtime>  (873) 
47.07472610473633

>  <fragmenstein_outcome>  (873) 
too moved

>  <fragmenstein_mode>  (873) 
expansion

>  <fragmenstein_error>  (873) 


$$$$
C4409-P201
     RDKit          3D

 69 73  0  0  0  0  0  0  0  0999 V2000
    4.1177   -2.2843   25.5021 N   0  0  0  0  0  0  0  0  0  0  0  0
    3.5516   -3.4493   26.1436 C   0  0  0  0  0  0  0  0  0  0  0  0
    3.2900   -3.2613   27.5871 C   0  0  0  0  0  0  0  0  0  0  0  0
    2.9060   -2.0258   28.0284 O   0  0  0  0  0  0  0  0  0  0  0  0
    2.7210   -2.2040   29.3629 C   0  0  0  0  0  0  0  0  0  0  0  0
    2.9544   -3.4197   29.8081 N   0  0  0  0  0  0  0  0  0  0  0  0
    3.3084   -4.1183   28.6767 C   0  0  0  0  0  0  0  0  0  0  0  0
    3.6695   -5.5413   28.6264 C   0  0  0  0  0  0  0  0  0  0  0  0
    2.8966   -6.4296   29.0504 N   0  0  0  0  0  0  0  0  0  0  0  0
    1.5377   -6.2170   29.5860 C   0  0  0  0  0  0  0  0  0  0  0  0
    1.4105   -6.0418   31.1100 C   0  0  0  0  0  0  0  0  0  0  0  0
    0.1851   -6.8243   31.7078 C   0  0  0  0  0  0  0  0  0  0  0  0
   -0.1085   -6.4688   33.1967 C   0  0  0  0  0  0  0  0  0  0  0  0
   -1.1996   -7.3479   33.9130 C   0  0  0  0  0  0  0  0  0  0  0  0
   -0.6017   -8.4609   34.7254 N   0  0  0  0  0  0  0  0  0  0  0  0
   -1.6478   -9.1457   36.1593 S   0  0  0  0  0  0  0  0  0  0  0  0
   -2.9632   -8.6024   35.8537 O   0  0  0  0  0  0  0  0  0  0  0  0
   -0.6989   -8.6309   37.1443 O   0  0  0  0  0  0  0  0  0  0  0  0
   -2.1420  -11.4186   36.2451 C   0  0  0  0  0  0  0  0  0  0  0  0
   -1.0148  -12.0761   35.6792 C   0  0  0  0  0  0  0  0  0  0  0  0
   -0.5887  -13.5015   34.5337 C   0  0  0  0  0  0  0  0  0  0  0  0
   -0.1497  -14.2766   35.5279 N   0  0  0  0  0  0  0  0  0  0  0  0
   -0.8430  -13.0170   37.1396 S   0  0  0  0  0  0  0  0  0  0  0  0
   -0.5168   -4.9915   33.2621 C   0  0  0  0  0  0  0  0  0  0  0  0
   -1.0705   -4.3905   32.2510 N   0  0  0  0  0  0  0  0  0  0  0  0
   -1.3193   -3.0495   32.3839 C   0  0  0  0  0  0  0  0  0  0  0  0
   -1.0834   -2.3307   33.4840 C   0  0  0  0  0  0  0  0  0  0  0  0
   -0.5147   -3.0330   34.6414 C   0  0  0  0  0  0  0  0  0  0  0  0
   -0.2849   -2.4495   35.6936 O   0  0  0  0  0  0  0  0  0  0  0  0
   -0.2374   -4.3536   34.4417 N   0  0  0  0  0  0  0  0  0  0  0  0
    4.9534   -5.6381   27.9418 N   0  0  0  0  0  0  0  0  0  0  0  0
    5.6512   -6.7219   27.4786 C   0  0  0  0  0  0  0  0  0  0  0  0
    5.4619   -7.2314   26.2457 C   0  0  0  0  0  0  0  0  0  0  0  0
    6.2918   -8.1704   25.6856 N   0  0  0  0  0  0  0  0  0  0  0  0
    7.4142   -8.6752   26.3028 C   0  0  0  0  0  0  0  0  0  0  0  0
    8.1581   -9.4874   25.7631 O   0  0  0  0  0  0  0  0  0  0  0  0
    7.6720   -8.1763   27.6822 C   0  0  0  0  0  0  0  0  0  0  0  0
    8.7605   -8.6811   28.4035 C   0  0  0  0  0  0  0  0  0  0  0  0
    9.0214   -8.2090   29.6883 C   0  0  0  0  0  0  0  0  0  0  0  0
    8.2068   -7.2268   30.2469 C   0  0  0  0  0  0  0  0  0  0  0  0
    7.1162   -6.7261   29.5305 C   0  0  0  0  0  0  0  0  0  0  0  0
    6.8231   -7.2028   28.2429 C   0  0  0  0  0  0  0  0  0  0  0  0
    4.9685   -1.9739   25.9649 H   0  0  0  0  0  0  0  0  0  0  0  0
    3.4781   -1.4887   25.5445 H   0  0  0  0  0  0  0  0  0  0  0  0
    4.2478   -4.2714   25.9718 H   0  0  0  0  0  0  0  0  0  0  0  0
    2.6284   -3.7556   25.6535 H   0  0  0  0  0  0  0  0  0  0  0  0
    2.4029   -1.3372   29.9255 H   0  0  0  0  0  0  0  0  0  0  0  0
    1.0200   -5.4004   29.0734 H   0  0  0  0  0  0  0  0  0  0  0  0
    1.0086   -7.1408   29.3399 H   0  0  0  0  0  0  0  0  0  0  0  0
    1.3065   -4.9711   31.3116 H   0  0  0  0  0  0  0  0  0  0  0  0
    2.3200   -6.3409   31.6361 H   0  0  0  0  0  0  0  0  0  0  0  0
    0.3725   -7.8966   31.6247 H   0  0  0  0  0  0  0  0  0  0  0  0
   -0.7024   -6.6256   31.0933 H   0  0  0  0  0  0  0  0  0  0  0  0
    0.8315   -6.5692   33.7566 H   0  0  0  0  0  0  0  0  0  0  0  0
   -1.7741   -6.7213   34.5969 H   0  0  0  0  0  0  0  0  0  0  0  0
   -1.8596   -7.7995   33.1689 H   0  0  0  0  0  0  0  0  0  0  0  0
    0.1763   -8.1414   35.3093 H   0  0  0  0  0  0  0  0  0  0  0  0
   -0.3215  -11.2217   35.6130 H   0  0  0  0  0  0  0  0  0  0  0  0
   -0.0439  -13.5530   33.6118 H   0  0  0  0  0  0  0  0  0  0  0  0
   -1.7326   -2.5616   31.5048 H   0  0  0  0  0  0  0  0  0  0  0  0
   -1.2877   -1.2748   33.5721 H   0  0  0  0  0  0  0  0  0  0  0  0
    0.1329   -4.8440   35.2418 H   0  0  0  0  0  0  0  0  0  0  0  0
    5.3350   -4.7045   27.8234 H   0  0  0  0  0  0  0  0  0  0  0  0
    4.6692   -6.8829   25.5891 H   0  0  0  0  0  0  0  0  0  0  0  0
    6.1230   -8.4817   24.7208 H   0  0  0  0  0  0  0  0  0  0  0  0
    9.4049   -9.4410   27.9661 H   0  0  0  0  0  0  0  0  0  0  0  0
    9.8645   -8.6067   30.2493 H   0  0  0  0  0  0  0  0  0  0  0  0
    8.4189   -6.8538   31.2462 H   0  0  0  0  0  0  0  0  0  0  0  0
    6.4961   -5.9674   30.0010 H   0  0  0  0  0  0  0  0  0  0  0  0
  1  2  1  0
  2  3  1  0
  3  4  1  0
  4  5  1  0
  5  6  2  0
  6  7  1  0
  7  8  1  0
  8  9  2  3
  9 10  1  0
 10 11  1  0
 11 12  1  0
 12 13  1  0
 13 14  1  0
 14 15  1  0
 15 16  1  0
 16 17  2  0
 16 18  2  0
 16 19  1  0
 19 20  2  0
 20 21  1  0
 21 22  2  0
 22 23  1  0
 13 24  1  0
 24 25  2  0
 25 26  1  0
 26 27  2  0
 27 28  1  0
 28 29  2  0
 28 30  1  0
  8 31  1  0
 31 32  1  0
 32 33  2  0
 33 34  1  0
 34 35  1  0
 35 36  2  0
 35 37  1  0
 37 38  2  0
 38 39  1  0
 39 40  2  0
 40 41  1  0
 41 42  2  0
  7  3  2  0
 23 19  1  0
 30 24  1  0
 42 32  1  0
 42 37  1  0
  1 43  1  0
  1 44  1  0
  2 45  1  0
  2 46  1  0
  5 47  1  0
 10 48  1  0
 10 49  1  0
 11 50  1  0
 11 51  1  0
 12 52  1  0
 12 53  1  0
 13 54  1  0
 14 55  1  0
 14 56  1  0
 15 57  1  0
 20 58  1  0
 21 59  1  0
 26 60  1  0
 27 61  1  0
 30 62  1  0
 31 63  1  0
 33 64  1  0
 34 65  1  0
 38 66  1  0
 39 67  1  0
 40 68  1  0
 41 69  1  0
M  END
>  <Energy>  (874) 
353.84753443604825

>  <compound_id>  (874) 
4409

>  <target_id>  (874) 
1

>  <reference_id>  (874) 
201

>  <inspiration_ids>  (874) 
[154, 201]

>  <energy_score>  (874) 
308.62418311996896

>  <distance_score>  (874) 
2.307918527511345

>  <path>  (874) 
/opt/xchem-fragalysis-2/maxwin/BulkDock/SCRATCH/505735/C4409-P201/C4409-P201.minimised.mol

>  <scratch_subdir>  (874) 
/opt/xchem-fragalysis-2/maxwin/BulkDock/SCRATCH/505735/C4409-P201

>  <fragmenstein_runtime>  (874) 
55.84454584121704

>  <fragmenstein_outcome>  (874) 
too moved

>  <fragmenstein_mode>  (874) 
expansion

>  <fragmenstein_error>  (874) 


$$$$
C4410-P154
     RDKit          3D

 74 78  0  0  0  0  0  0  0  0999 V2000
    1.4210   -3.5377   25.4325 N   0  0  0  0  0  0  0  0  0  0  0  0
    1.8458   -2.6243   26.4848 C   0  0  0  0  0  0  0  0  0  0  0  0
    3.2525   -2.2194   26.3027 C   0  0  0  0  0  0  0  0  0  0  0  0
    3.5278   -0.8988   26.1116 O   0  0  0  0  0  0  0  0  0  0  0  0
    4.8798   -0.8768   25.9878 C   0  0  0  0  0  0  0  0  0  0  0  0
    5.4953   -2.0300   26.1205 N   0  0  0  0  0  0  0  0  0  0  0  0
    4.4527   -2.9030   26.3122 C   0  0  0  0  0  0  0  0  0  0  0  0
    4.6000   -4.3144   26.5533 C   0  0  0  0  0  0  0  0  0  0  0  0
    3.6595   -4.8855   27.0317 N   0  0  0  0  0  0  0  0  0  0  0  0
    3.4876   -6.2374   27.4030 C   0  0  0  0  0  0  0  0  0  0  0  0
    2.9140   -6.2627   28.8181 C   0  0  0  0  0  0  0  0  0  0  0  0
    2.0551   -5.1070   29.2793 C   0  0  0  0  0  0  0  0  0  0  0  0
    1.6402   -5.0266   30.7680 C   0  0  0  0  0  0  0  0  0  0  0  0
    0.6703   -3.8392   30.7709 C   0  0  0  0  0  0  0  0  0  0  0  0
    0.3333   -3.3220   32.1121 N   0  0  0  0  0  0  0  0  0  0  0  0
   -1.1780   -2.5767   32.2106 S   0  0  0  0  0  0  0  0  0  0  0  0
   -1.2928   -1.9827   33.5206 O   0  0  0  0  0  0  0  0  0  0  0  0
   -2.1640   -3.5101   31.7028 O   0  0  0  0  0  0  0  0  0  0  0  0
   -0.9606   -1.2815   31.0449 C   0  0  0  0  0  0  0  0  0  0  0  0
   -0.2720   -0.1246   31.3856 C   0  0  0  0  0  0  0  0  0  0  0  0
   -0.0183    0.8149   30.3903 C   0  0  0  0  0  0  0  0  0  0  0  0
   -0.4520    0.5648   29.0936 C   0  0  0  0  0  0  0  0  0  0  0  0
   -0.2365    1.5150   28.0922 N   0  0  0  0  0  0  0  0  0  0  0  0
   -1.1266   -0.5529   28.7697 N   0  0  0  0  0  0  0  0  0  0  0  0
   -1.3776   -1.4555   29.7422 C   0  0  0  0  0  0  0  0  0  0  0  0
    0.9122   -6.1424   31.4907 C   0  0  0  0  0  0  0  0  0  0  0  0
    0.8153   -5.9640   32.8364 N   0  0  0  0  0  0  0  0  0  0  0  0
   -0.0928   -6.6968   33.5085 C   0  0  0  0  0  0  0  0  0  0  0  0
   -0.8786   -7.6252   32.8952 C   0  0  0  0  0  0  0  0  0  0  0  0
   -0.6308   -7.7856   31.5592 C   0  0  0  0  0  0  0  0  0  0  0  0
   -1.2196   -8.8253   30.9123 O   0  0  0  0  0  0  0  0  0  0  0  0
    0.2311   -7.0753   30.8128 N   0  0  0  0  0  0  0  0  0  0  0  0
    6.0244   -4.8333   26.1941 N   0  0  0  0  0  0  0  0  0  0  0  0
    6.5488   -6.0880   26.2441 C   0  0  0  0  0  0  0  0  0  0  0  0
    6.4287   -6.9692   25.2425 C   0  0  0  0  0  0  0  0  0  0  0  0
    6.8996   -8.2503   25.3246 N   0  0  0  0  0  0  0  0  0  0  0  0
    7.5437   -8.7726   26.4175 C   0  0  0  0  0  0  0  0  0  0  0  0
    7.9641   -9.9228   26.4470 O   0  0  0  0  0  0  0  0  0  0  0  0
    7.6776   -7.8598   27.5838 C   0  0  0  0  0  0  0  0  0  0  0  0
    8.2651   -8.3311   28.7620 C   0  0  0  0  0  0  0  0  0  0  0  0
    8.3526   -7.4995   29.8776 C   0  0  0  0  0  0  0  0  0  0  0  0
    7.8584   -6.1987   29.8145 C   0  0  0  0  0  0  0  0  0  0  0  0
    7.2831   -5.7234   28.6332 C   0  0  0  0  0  0  0  0  0  0  0  0
    7.1845   -6.5468   27.4993 C   0  0  0  0  0  0  0  0  0  0  0  0
    0.5595   -3.9791   25.7442 H   0  0  0  0  0  0  0  0  0  0  0  0
    1.1274   -2.9587   24.6356 H   0  0  0  0  0  0  0  0  0  0  0  0
    1.2005   -1.7460   26.5268 H   0  0  0  0  0  0  0  0  0  0  0  0
    1.7214   -3.1039   27.4546 H   0  0  0  0  0  0  0  0  0  0  0  0
    5.3253    0.0854   25.8159 H   0  0  0  0  0  0  0  0  0  0  0  0
    4.3936   -6.8411   27.3824 H   0  0  0  0  0  0  0  0  0  0  0  0
    2.7992   -6.7227   26.7101 H   0  0  0  0  0  0  0  0  0  0  0  0
    3.7769   -6.3060   29.4827 H   0  0  0  0  0  0  0  0  0  0  0  0
    2.2945   -7.1577   28.8754 H   0  0  0  0  0  0  0  0  0  0  0  0
    1.1645   -5.0544   28.6524 H   0  0  0  0  0  0  0  0  0  0  0  0
    2.6199   -4.1850   29.0934 H   0  0  0  0  0  0  0  0  0  0  0  0
    2.5345   -4.7836   31.3570 H   0  0  0  0  0  0  0  0  0  0  0  0
    1.1143   -2.9983   30.2227 H   0  0  0  0  0  0  0  0  0  0  0  0
   -0.2410   -4.1356   30.2356 H   0  0  0  0  0  0  0  0  0  0  0  0
    0.4334   -4.0109   32.8713 H   0  0  0  0  0  0  0  0  0  0  0  0
    0.0881    0.0348   32.3989 H   0  0  0  0  0  0  0  0  0  0  0  0
    0.5212    1.7261   30.6288 H   0  0  0  0  0  0  0  0  0  0  0  0
    0.7520    1.7402   28.0309 H   0  0  0  0  0  0  0  0  0  0  0  0
   -0.7366    2.3730   28.3185 H   0  0  0  0  0  0  0  0  0  0  0  0
   -1.9006   -2.3471   29.4083 H   0  0  0  0  0  0  0  0  0  0  0  0
   -0.1727   -6.5003   34.5740 H   0  0  0  0  0  0  0  0  0  0  0  0
   -1.5899   -8.2301   33.4341 H   0  0  0  0  0  0  0  0  0  0  0  0
   -0.4676   -9.1795   30.3919 H   0  0  0  0  0  0  0  0  0  0  0  0
    6.6009   -4.0514   25.8787 H   0  0  0  0  0  0  0  0  0  0  0  0
    5.9287   -6.7162   24.3116 H   0  0  0  0  0  0  0  0  0  0  0  0
    6.6957   -8.8736   24.5378 H   0  0  0  0  0  0  0  0  0  0  0  0
    8.6502   -9.3469   28.7997 H   0  0  0  0  0  0  0  0  0  0  0  0
    8.8113   -7.8620   30.7937 H   0  0  0  0  0  0  0  0  0  0  0  0
    7.9322   -5.5460   30.6809 H   0  0  0  0  0  0  0  0  0  0  0  0
    6.9144   -4.7003   28.6075 H   0  0  0  0  0  0  0  0  0  0  0  0
  1  2  1  0
  2  3  1  0
  3  4  1  0
  4  5  1  0
  5  6  2  0
  6  7  1  0
  7  8  1  0
  8  9  2  3
  9 10  1  0
 10 11  1  0
 11 12  1  0
 12 13  1  0
 13 14  1  0
 14 15  1  0
 15 16  1  0
 16 17  2  0
 16 18  2  0
 16 19  1  0
 19 20  2  0
 20 21  1  0
 21 22  2  0
 22 23  1  0
 22 24  1  0
 24 25  2  0
 13 26  1  0
 26 27  2  0
 27 28  1  0
 28 29  2  0
 29 30  1  0
 30 31  1  0
 30 32  2  0
  8 33  1  0
 33 34  1  0
 34 35  2  0
 35 36  1  0
 36 37  1  0
 37 38  2  0
 37 39  1  0
 39 40  2  0
 40 41  1  0
 41 42  2  0
 42 43  1  0
 43 44  2  0
  7  3  2  0
 25 19  1  0
 32 26  1  0
 44 34  1  0
 44 39  1  0
  1 45  1  0
  1 46  1  0
  2 47  1  0
  2 48  1  0
  5 49  1  0
 10 50  1  0
 10 51  1  0
 11 52  1  0
 11 53  1  0
 12 54  1  0
 12 55  1  0
 13 56  1  0
 14 57  1  0
 14 58  1  0
 15 59  1  0
 20 60  1  0
 21 61  1  0
 23 62  1  0
 23 63  1  0
 25 64  1  0
 28 65  1  0
 29 66  1  0
 31 67  1  0
 33 68  1  0
 35 69  1  0
 36 70  1  0
 40 71  1  0
 41 72  1  0
 42 73  1  0
 43 74  1  0
M  END
>  <Energy>  (875) 
-43.532432280856995

>  <compound_id>  (875) 
4410

>  <target_id>  (875) 
1

>  <reference_id>  (875) 
154

>  <inspiration_ids>  (875) 
[154, 202]

>  <energy_score>  (875) 
-138.4194641812307

>  <distance_score>  (875) 
0.6564020717060318

>  <path>  (875) 
/opt/xchem-fragalysis-2/maxwin/BulkDock/SCRATCH/505735/C4410-P154/C4410-P154.minimised.mol

>  <scratch_subdir>  (875) 
/opt/xchem-fragalysis-2/maxwin/BulkDock/SCRATCH/505735/C4410-P154

>  <fragmenstein_runtime>  (875) 
10.15918755531311

>  <fragmenstein_outcome>  (875) 
acceptable

>  <fragmenstein_mode>  (875) 
expansion

>  <fragmenstein_error>  (875) 


$$$$
C4410-P202
     RDKit          3D

 74 78  0  0  0  0  0  0  0  0999 V2000
    1.5784   -2.8451   27.7511 N   0  0  0  0  0  0  0  0  0  0  0  0
    2.4574   -1.7791   28.1072 C   0  0  0  0  0  0  0  0  0  0  0  0
    3.7309   -1.7756   27.3586 C   0  0  0  0  0  0  0  0  0  0  0  0
    4.2462   -0.5303   27.1427 O   0  0  0  0  0  0  0  0  0  0  0  0
    5.4518   -0.7699   26.5856 C   0  0  0  0  0  0  0  0  0  0  0  0
    5.7525   -2.0291   26.3883 N   0  0  0  0  0  0  0  0  0  0  0  0
    4.6349   -2.6945   26.8489 C   0  0  0  0  0  0  0  0  0  0  0  0
    4.5663   -4.1420   26.8433 C   0  0  0  0  0  0  0  0  0  0  0  0
    3.5777   -4.6887   27.2643 N   0  0  0  0  0  0  0  0  0  0  0  0
    3.3175   -6.0853   27.4059 C   0  0  0  0  0  0  0  0  0  0  0  0
    2.8404   -6.3527   28.8412 C   0  0  0  0  0  0  0  0  0  0  0  0
    2.0347   -5.2624   29.5096 C   0  0  0  0  0  0  0  0  0  0  0  0
    1.6027   -5.2087   30.9895 C   0  0  0  0  0  0  0  0  0  0  0  0
    0.6833   -3.9693   30.9755 C   0  0  0  0  0  0  0  0  0  0  0  0
    0.2906   -3.4219   32.2843 N   0  0  0  0  0  0  0  0  0  0  0  0
   -1.1990   -2.6059   32.2617 S   0  0  0  0  0  0  0  0  0  0  0  0
   -1.3371   -1.9354   33.5321 O   0  0  0  0  0  0  0  0  0  0  0  0
   -2.1929   -3.5439   31.7777 O   0  0  0  0  0  0  0  0  0  0  0  0
   -0.9334   -1.3839   31.0238 C   0  0  0  0  0  0  0  0  0  0  0  0
   -0.3205   -0.1743   31.3220 C   0  0  0  0  0  0  0  0  0  0  0  0
   -0.1210    0.7442   30.2912 C   0  0  0  0  0  0  0  0  0  0  0  0
   -0.5164    0.4184   28.9976 C   0  0  0  0  0  0  0  0  0  0  0  0
   -0.3952    1.3542   27.9699 N   0  0  0  0  0  0  0  0  0  0  0  0
   -1.1027   -0.7547   28.7141 N   0  0  0  0  0  0  0  0  0  0  0  0
   -1.3223   -1.6269   29.7221 C   0  0  0  0  0  0  0  0  0  0  0  0
    0.7964   -6.3000   31.6428 C   0  0  0  0  0  0  0  0  0  0  0  0
    0.5857   -6.1226   32.9737 N   0  0  0  0  0  0  0  0  0  0  0  0
   -0.3770   -6.8568   33.5601 C   0  0  0  0  0  0  0  0  0  0  0  0
   -1.1077   -7.7802   32.8746 C   0  0  0  0  0  0  0  0  0  0  0  0
   -0.7381   -7.9411   31.5677 C   0  0  0  0  0  0  0  0  0  0  0  0
   -1.2626   -8.9706   30.8585 O   0  0  0  0  0  0  0  0  0  0  0  0
    0.1848   -7.2314   30.9030 N   0  0  0  0  0  0  0  0  0  0  0  0
    5.9277   -4.7401   26.3439 N   0  0  0  0  0  0  0  0  0  0  0  0
    6.3839   -6.0256   26.3386 C   0  0  0  0  0  0  0  0  0  0  0  0
    6.2584   -6.8695   25.3051 C   0  0  0  0  0  0  0  0  0  0  0  0
    6.7273   -8.1546   25.3331 N   0  0  0  0  0  0  0  0  0  0  0  0
    7.4030   -8.7114   26.3896 C   0  0  0  0  0  0  0  0  0  0  0  0
    7.8395   -9.8558   26.3641 O   0  0  0  0  0  0  0  0  0  0  0  0
    7.5508   -7.8426   27.5864 C   0  0  0  0  0  0  0  0  0  0  0  0
    8.1633   -8.3537   28.7332 C   0  0  0  0  0  0  0  0  0  0  0  0
    8.2780   -7.5627   29.8754 C   0  0  0  0  0  0  0  0  0  0  0  0
    7.7879   -6.2600   29.8698 C   0  0  0  0  0  0  0  0  0  0  0  0
    7.1821   -5.7460   28.7213 C   0  0  0  0  0  0  0  0  0  0  0  0
    7.0502   -6.5307   27.5621 C   0  0  0  0  0  0  0  0  0  0  0  0
    2.0593   -3.7340   27.6939 H   0  0  0  0  0  0  0  0  0  0  0  0
    0.7058   -2.8376   28.2590 H   0  0  0  0  0  0  0  0  0  0  0  0
    1.9428   -0.8267   27.9450 H   0  0  0  0  0  0  0  0  0  0  0  0
    2.6890   -1.8318   29.1764 H   0  0  0  0  0  0  0  0  0  0  0  0
    6.0639    0.0951   26.4042 H   0  0  0  0  0  0  0  0  0  0  0  0
    4.1584   -6.7438   27.1973 H   0  0  0  0  0  0  0  0  0  0  0  0
    2.5485   -6.3693   26.6889 H   0  0  0  0  0  0  0  0  0  0  0  0
    3.7510   -6.5065   29.4141 H   0  0  0  0  0  0  0  0  0  0  0  0
    2.2164   -7.2455   28.7987 H   0  0  0  0  0  0  0  0  0  0  0  0
    1.1393   -5.1342   28.8964 H   0  0  0  0  0  0  0  0  0  0  0  0
    2.6625   -4.3694   29.4328 H   0  0  0  0  0  0  0  0  0  0  0  0
    2.4861   -5.0205   31.6125 H   0  0  0  0  0  0  0  0  0  0  0  0
    1.1957   -3.1418   30.4753 H   0  0  0  0  0  0  0  0  0  0  0  0
   -0.2109   -4.2166   30.3889 H   0  0  0  0  0  0  0  0  0  0  0  0
    0.2651   -4.1332   33.0290 H   0  0  0  0  0  0  0  0  0  0  0  0
   -0.0038    0.0584   32.3355 H   0  0  0  0  0  0  0  0  0  0  0  0
    0.3384    1.7049   30.5017 H   0  0  0  0  0  0  0  0  0  0  0  0
    0.5439    1.7333   27.9310 H   0  0  0  0  0  0  0  0  0  0  0  0
   -1.0475    2.1195   28.1267 H   0  0  0  0  0  0  0  0  0  0  0  0
   -1.8149   -2.5455   29.4146 H   0  0  0  0  0  0  0  0  0  0  0  0
   -0.5453   -6.6683   34.6164 H   0  0  0  0  0  0  0  0  0  0  0  0
   -1.8696   -8.3840   33.3405 H   0  0  0  0  0  0  0  0  0  0  0  0
   -0.5068   -9.2073   30.2853 H   0  0  0  0  0  0  0  0  0  0  0  0
    6.5772   -3.9786   26.1343 H   0  0  0  0  0  0  0  0  0  0  0  0
    5.7716   -6.5817   24.3811 H   0  0  0  0  0  0  0  0  0  0  0  0
    6.5323   -8.7476   24.5204 H   0  0  0  0  0  0  0  0  0  0  0  0
    8.5408   -9.3726   28.7290 H   0  0  0  0  0  0  0  0  0  0  0  0
    8.7496   -7.9637   30.7685 H   0  0  0  0  0  0  0  0  0  0  0  0
    7.8853   -5.6393   30.7571 H   0  0  0  0  0  0  0  0  0  0  0  0
    6.8190   -4.7216   28.7446 H   0  0  0  0  0  0  0  0  0  0  0  0
  1  2  1  0
  2  3  1  0
  3  4  1  0
  4  5  1  0
  5  6  2  0
  6  7  1  0
  7  8  1  0
  8  9  2  3
  9 10  1  0
 10 11  1  0
 11 12  1  0
 12 13  1  0
 13 14  1  0
 14 15  1  0
 15 16  1  0
 16 17  2  0
 16 18  2  0
 16 19  1  0
 19 20  2  0
 20 21  1  0
 21 22  2  0
 22 23  1  0
 22 24  1  0
 24 25  2  0
 13 26  1  0
 26 27  2  0
 27 28  1  0
 28 29  2  0
 29 30  1  0
 30 31  1  0
 30 32  2  0
  8 33  1  0
 33 34  1  0
 34 35  2  0
 35 36  1  0
 36 37  1  0
 37 38  2  0
 37 39  1  0
 39 40  2  0
 40 41  1  0
 41 42  2  0
 42 43  1  0
 43 44  2  0
  7  3  2  0
 25 19  1  0
 32 26  1  0
 44 34  1  0
 44 39  1  0
  1 45  1  0
  1 46  1  0
  2 47  1  0
  2 48  1  0
  5 49  1  0
 10 50  1  0
 10 51  1  0
 11 52  1  0
 11 53  1  0
 12 54  1  0
 12 55  1  0
 13 56  1  0
 14 57  1  0
 14 58  1  0
 15 59  1  0
 20 60  1  0
 21 61  1  0
 23 62  1  0
 23 63  1  0
 25 64  1  0
 28 65  1  0
 29 66  1  0
 31 67  1  0
 33 68  1  0
 35 69  1  0
 36 70  1  0
 40 71  1  0
 41 72  1  0
 42 73  1  0
 43 74  1  0
M  END
>  <Energy>  (876) 
-36.050219594314136

>  <compound_id>  (876) 
4410

>  <target_id>  (876) 
1

>  <reference_id>  (876) 
202

>  <inspiration_ids>  (876) 
[154, 202]

>  <energy_score>  (876) 
-130.93725149468645

>  <distance_score>  (876) 
0.9768961929957132

>  <path>  (876) 
/opt/xchem-fragalysis-2/maxwin/BulkDock/SCRATCH/505735/C4410-P202/C4410-P202.minimised.mol

>  <scratch_subdir>  (876) 
/opt/xchem-fragalysis-2/maxwin/BulkDock/SCRATCH/505735/C4410-P202

>  <fragmenstein_runtime>  (876) 
26.91377067565918

>  <fragmenstein_outcome>  (876) 
acceptable

>  <fragmenstein_mode>  (876) 
expansion

>  <fragmenstein_error>  (876) 


$$$$
C4410-P155
     RDKit          3D

 74 78  0  0  0  0  0  0  0  0999 V2000
    6.3436   -1.6793   29.4532 N   0  0  0  0  0  0  0  0  0  0  0  0
    6.8847   -1.4156   28.1219 C   0  0  0  0  0  0  0  0  0  0  0  0
    5.8560   -1.5800   27.0780 C   0  0  0  0  0  0  0  0  0  0  0  0
    5.3293   -0.4750   26.4843 O   0  0  0  0  0  0  0  0  0  0  0  0
    4.4225   -0.9889   25.6050 C   0  0  0  0  0  0  0  0  0  0  0  0
    4.3284   -2.3022   25.5814 N   0  0  0  0  0  0  0  0  0  0  0  0
    5.2125   -2.6788   26.5619 C   0  0  0  0  0  0  0  0  0  0  0  0
    5.3146   -3.9843   27.1408 C   0  0  0  0  0  0  0  0  0  0  0  0
    4.8241   -4.1313   28.2267 N   0  0  0  0  0  0  0  0  0  0  0  0
    4.6118   -5.0789   29.2512 C   0  0  0  0  0  0  0  0  0  0  0  0
    3.4856   -4.5076   30.1457 C   0  0  0  0  0  0  0  0  0  0  0  0
    2.1132   -4.8876   29.6021 C   0  0  0  0  0  0  0  0  0  0  0  0
    0.9632   -4.5278   30.5569 C   0  0  0  0  0  0  0  0  0  0  0  0
   -0.2859   -4.1087   29.7799 C   0  0  0  0  0  0  0  0  0  0  0  0
   -0.1010   -2.8102   29.1150 N   0  0  0  0  0  0  0  0  0  0  0  0
   -0.6143   -1.4741   29.9981 S   0  0  0  0  0  0  0  0  0  0  0  0
    0.3688   -1.2090   31.0236 O   0  0  0  0  0  0  0  0  0  0  0  0
   -2.0026   -1.6826   30.3511 O   0  0  0  0  0  0  0  0  0  0  0  0
   -0.5443   -0.1908   28.8167 C   0  0  0  0  0  0  0  0  0  0  0  0
    0.3978    0.8258   28.8927 C   0  0  0  0  0  0  0  0  0  0  0  0
    0.2483    1.9279   28.0550 C   0  0  0  0  0  0  0  0  0  0  0  0
   -0.8398    1.9741   27.1933 C   0  0  0  0  0  0  0  0  0  0  0  0
   -1.0686    3.0801   26.3842 N   0  0  0  0  0  0  0  0  0  0  0  0
   -1.7135    0.9662   27.0694 N   0  0  0  0  0  0  0  0  0  0  0  0
   -1.5492   -0.1031   27.8795 C   0  0  0  0  0  0  0  0  0  0  0  0
    0.5083   -5.6816   31.4334 C   0  0  0  0  0  0  0  0  0  0  0  0
    0.2541   -5.3902   32.7233 N   0  0  0  0  0  0  0  0  0  0  0  0
   -0.4730   -6.2808   33.4252 C   0  0  0  0  0  0  0  0  0  0  0  0
   -0.9595   -7.4405   32.8855 C   0  0  0  0  0  0  0  0  0  0  0  0
   -0.6034   -7.6561   31.5843 C   0  0  0  0  0  0  0  0  0  0  0  0
   -1.0065   -8.7899   30.9517 O   0  0  0  0  0  0  0  0  0  0  0  0
    0.1321   -6.8305   30.8308 N   0  0  0  0  0  0  0  0  0  0  0  0
    6.1281   -4.9809   26.2473 N   0  0  0  0  0  0  0  0  0  0  0  0
    6.4184   -6.3126   26.4282 C   0  0  0  0  0  0  0  0  0  0  0  0
    6.2501   -7.1584   25.3954 C   0  0  0  0  0  0  0  0  0  0  0  0
    6.6317   -8.4697   25.4145 N   0  0  0  0  0  0  0  0  0  0  0  0
    7.2494   -9.0793   26.4749 C   0  0  0  0  0  0  0  0  0  0  0  0
    7.5918  -10.2555   26.4501 O   0  0  0  0  0  0  0  0  0  0  0  0
    7.4743   -8.2181   27.6657 C   0  0  0  0  0  0  0  0  0  0  0  0
    8.0720   -8.7850   28.8003 C   0  0  0  0  0  0  0  0  0  0  0  0
    8.3989   -7.9765   29.8831 C   0  0  0  0  0  0  0  0  0  0  0  0
    8.1747   -6.6049   29.8071 C   0  0  0  0  0  0  0  0  0  0  0  0
    7.5782   -6.0450   28.6700 C   0  0  0  0  0  0  0  0  0  0  0  0
    7.1429   -6.8466   27.6094 C   0  0  0  0  0  0  0  0  0  0  0  0
    5.8649   -2.5849   29.4311 H   0  0  0  0  0  0  0  0  0  0  0  0
    5.5978   -1.0054   29.6314 H   0  0  0  0  0  0  0  0  0  0  0  0
    7.2975   -0.4015   28.0978 H   0  0  0  0  0  0  0  0  0  0  0  0
    7.7170   -2.1025   27.9335 H   0  0  0  0  0  0  0  0  0  0  0  0
    3.8789   -0.2595   25.0298 H   0  0  0  0  0  0  0  0  0  0  0  0
    5.4980   -5.1435   29.8845 H   0  0  0  0  0  0  0  0  0  0  0  0
    4.3693   -6.0715   28.8610 H   0  0  0  0  0  0  0  0  0  0  0  0
    3.5640   -3.4140   30.2081 H   0  0  0  0  0  0  0  0  0  0  0  0
    3.5808   -4.8642   31.1749 H   0  0  0  0  0  0  0  0  0  0  0  0
    2.1096   -5.9601   29.3965 H   0  0  0  0  0  0  0  0  0  0  0  0
    1.9922   -4.3691   28.6436 H   0  0  0  0  0  0  0  0  0  0  0  0
    1.2794   -3.7038   31.2079 H   0  0  0  0  0  0  0  0  0  0  0  0
   -1.1599   -4.0616   30.4396 H   0  0  0  0  0  0  0  0  0  0  0  0
   -0.5347   -4.8452   29.0070 H   0  0  0  0  0  0  0  0  0  0  0  0
   -0.4585   -2.7901   28.1552 H   0  0  0  0  0  0  0  0  0  0  0  0
    1.2063    0.7951   29.6174 H   0  0  0  0  0  0  0  0  0  0  0  0
    0.9475    2.7560   28.1006 H   0  0  0  0  0  0  0  0  0  0  0  0
   -1.9591    2.9085   25.9165 H   0  0  0  0  0  0  0  0  0  0  0  0
   -1.1414    3.9278   26.9408 H   0  0  0  0  0  0  0  0  0  0  0  0
   -2.2883   -0.8889   27.7546 H   0  0  0  0  0  0  0  0  0  0  0  0
   -0.6768   -6.0092   34.4572 H   0  0  0  0  0  0  0  0  0  0  0  0
   -1.5594   -8.1383   33.4502 H   0  0  0  0  0  0  0  0  0  0  0  0
   -0.2779   -8.9391   30.3210 H   0  0  0  0  0  0  0  0  0  0  0  0
    6.3220   -4.5471   25.3447 H   0  0  0  0  0  0  0  0  0  0  0  0
    5.7934   -6.8389   24.4610 H   0  0  0  0  0  0  0  0  0  0  0  0
    6.4295   -9.0317   24.5817 H   0  0  0  0  0  0  0  0  0  0  0  0
    8.2999   -9.8492   28.8298 H   0  0  0  0  0  0  0  0  0  0  0  0
    8.8683   -8.4098   30.7629 H   0  0  0  0  0  0  0  0  0  0  0  0
    8.4774   -5.9589   30.6285 H   0  0  0  0  0  0  0  0  0  0  0  0
    7.4558   -4.9654   28.6345 H   0  0  0  0  0  0  0  0  0  0  0  0
  1  2  1  0
  2  3  1  0
  3  4  1  0
  4  5  1  0
  5  6  2  0
  6  7  1  0
  7  8  1  0
  8  9  2  3
  9 10  1  0
 10 11  1  0
 11 12  1  0
 12 13  1  0
 13 14  1  0
 14 15  1  0
 15 16  1  0
 16 17  2  0
 16 18  2  0
 16 19  1  0
 19 20  2  0
 20 21  1  0
 21 22  2  0
 22 23  1  0
 22 24  1  0
 24 25  2  0
 13 26  1  0
 26 27  2  0
 27 28  1  0
 28 29  2  0
 29 30  1  0
 30 31  1  0
 30 32  2  0
  8 33  1  0
 33 34  1  0
 34 35  2  0
 35 36  1  0
 36 37  1  0
 37 38  2  0
 37 39  1  0
 39 40  2  0
 40 41  1  0
 41 42  2  0
 42 43  1  0
 43 44  2  0
  7  3  2  0
 25 19  1  0
 32 26  1  0
 44 34  1  0
 44 39  1  0
  1 45  1  0
  1 46  1  0
  2 47  1  0
  2 48  1  0
  5 49  1  0
 10 50  1  0
 10 51  1  0
 11 52  1  0
 11 53  1  0
 12 54  1  0
 12 55  1  0
 13 56  1  0
 14 57  1  0
 14 58  1  0
 15 59  1  0
 20 60  1  0
 21 61  1  0
 23 62  1  0
 23 63  1  0
 25 64  1  0
 28 65  1  0
 29 66  1  0
 31 67  1  0
 33 68  1  0
 35 69  1  0
 36 70  1  0
 40 71  1  0
 41 72  1  0
 42 73  1  0
 43 74  1  0
M  END
>  <Energy>  (877) 
-50.277923602821211

>  <compound_id>  (877) 
4410

>  <target_id>  (877) 
1

>  <reference_id>  (877) 
155

>  <inspiration_ids>  (877) 
[155, 13]

>  <energy_score>  (877) 
-72.73582834710837

>  <distance_score>  (877) 
1.1132283015805553

>  <path>  (877) 
/opt/xchem-fragalysis-2/maxwin/BulkDock/SCRATCH/505735/C4410-P155/C4410-P155.minimised.mol

>  <scratch_subdir>  (877) 
/opt/xchem-fragalysis-2/maxwin/BulkDock/SCRATCH/505735/C4410-P155

>  <fragmenstein_runtime>  (877) 
24.299760580062866

>  <fragmenstein_outcome>  (877) 
too moved

>  <fragmenstein_mode>  (877) 
expansion

>  <fragmenstein_error>  (877) 


$$$$
C4410-P13
     RDKit          3D

 74 78  0  0  0  0  0  0  0  0999 V2000
    6.3338   -1.8819   29.6325 N   0  0  0  0  0  0  0  0  0  0  0  0
    6.9648   -1.5170   28.3657 C   0  0  0  0  0  0  0  0  0  0  0  0
    6.0158   -1.6324   27.2469 C   0  0  0  0  0  0  0  0  0  0  0  0
    5.5915   -0.5018   26.6104 O   0  0  0  0  0  0  0  0  0  0  0  0
    4.7423   -0.9724   25.6541 C   0  0  0  0  0  0  0  0  0  0  0  0
    4.5950   -2.2798   25.6273 N   0  0  0  0  0  0  0  0  0  0  0  0
    5.3906   -2.7046   26.6638 C   0  0  0  0  0  0  0  0  0  0  0  0
    5.4419   -4.0574   27.1415 C   0  0  0  0  0  0  0  0  0  0  0  0
    4.8188   -4.3276   28.1380 N   0  0  0  0  0  0  0  0  0  0  0  0
    4.4548   -5.6146   28.6551 C   0  0  0  0  0  0  0  0  0  0  0  0
    2.9652   -5.7872   28.3774 C   0  0  0  0  0  0  0  0  0  0  0  0
    2.1232   -4.5829   28.8043 C   0  0  0  0  0  0  0  0  0  0  0  0
    2.0335   -4.3506   30.3202 C   0  0  0  0  0  0  0  0  0  0  0  0
    1.3791   -2.9836   30.5817 C   0  0  0  0  0  0  0  0  0  0  0  0
    0.0058   -2.9250   30.0274 N   0  0  0  0  0  0  0  0  0  0  0  0
   -0.9060   -1.5742   30.4258 S   0  0  0  0  0  0  0  0  0  0  0  0
   -0.2841   -0.9086   31.5495 O   0  0  0  0  0  0  0  0  0  0  0  0
   -2.2795   -2.0155   30.5025 O   0  0  0  0  0  0  0  0  0  0  0  0
   -0.7343   -0.5086   29.0352 C   0  0  0  0  0  0  0  0  0  0  0  0
    0.2212    0.5049   29.0372 C   0  0  0  0  0  0  0  0  0  0  0  0
    0.1103    1.5321   28.1031 C   0  0  0  0  0  0  0  0  0  0  0  0
   -0.9611    1.5209   27.2212 C   0  0  0  0  0  0  0  0  0  0  0  0
   -1.1764    2.5861   26.3504 N   0  0  0  0  0  0  0  0  0  0  0  0
   -1.8394    0.5081   27.1575 N   0  0  0  0  0  0  0  0  0  0  0  0
   -1.7127   -0.4942   28.0621 C   0  0  0  0  0  0  0  0  0  0  0  0
    1.2875   -5.4353   31.0760 C   0  0  0  0  0  0  0  0  0  0  0  0
    1.5415   -5.5603   32.3943 N   0  0  0  0  0  0  0  0  0  0  0  0
    0.7725   -6.4314   33.0832 C   0  0  0  0  0  0  0  0  0  0  0  0
   -0.2019   -7.2055   32.5074 C   0  0  0  0  0  0  0  0  0  0  0  0
   -0.3321   -7.0279   31.1610 C   0  0  0  0  0  0  0  0  0  0  0  0
   -1.2627   -7.7162   30.4532 O   0  0  0  0  0  0  0  0  0  0  0  0
    0.3796   -6.1787   30.4151 N   0  0  0  0  0  0  0  0  0  0  0  0
    6.3252   -4.9596   26.2182 N   0  0  0  0  0  0  0  0  0  0  0  0
    6.6977   -6.2704   26.3457 C   0  0  0  0  0  0  0  0  0  0  0  0
    6.4766   -7.1412   25.3526 C   0  0  0  0  0  0  0  0  0  0  0  0
    6.8263   -8.4586   25.4245 N   0  0  0  0  0  0  0  0  0  0  0  0
    7.4225   -9.0545   26.5011 C   0  0  0  0  0  0  0  0  0  0  0  0
    7.7319  -10.2387   26.5109 O   0  0  0  0  0  0  0  0  0  0  0  0
    7.6666   -8.1649   27.6619 C   0  0  0  0  0  0  0  0  0  0  0  0
    8.1929   -8.7205   28.8320 C   0  0  0  0  0  0  0  0  0  0  0  0
    8.4418   -7.9096   29.9341 C   0  0  0  0  0  0  0  0  0  0  0  0
    8.2014   -6.5412   29.8488 C   0  0  0  0  0  0  0  0  0  0  0  0
    7.6900   -5.9846   28.6710 C   0  0  0  0  0  0  0  0  0  0  0  0
    7.3667   -6.7914   27.5694 C   0  0  0  0  0  0  0  0  0  0  0  0
    5.8749   -2.7907   29.5250 H   0  0  0  0  0  0  0  0  0  0  0  0
    5.5783   -1.2209   29.8125 H   0  0  0  0  0  0  0  0  0  0  0  0
    7.3538   -0.4961   28.4407 H   0  0  0  0  0  0  0  0  0  0  0  0
    7.8239   -2.1742   28.1934 H   0  0  0  0  0  0  0  0  0  0  0  0
    4.2885   -0.2332   25.0078 H   0  0  0  0  0  0  0  0  0  0  0  0
    4.6590   -5.6427   29.7269 H   0  0  0  0  0  0  0  0  0  0  0  0
    4.9568   -6.4656   28.2056 H   0  0  0  0  0  0  0  0  0  0  0  0
    2.6022   -6.7073   28.8404 H   0  0  0  0  0  0  0  0  0  0  0  0
    2.8388   -5.9159   27.2944 H   0  0  0  0  0  0  0  0  0  0  0  0
    1.1219   -4.6997   28.3954 H   0  0  0  0  0  0  0  0  0  0  0  0
    2.5034   -3.6752   28.3190 H   0  0  0  0  0  0  0  0  0  0  0  0
    3.0496   -4.3056   30.7314 H   0  0  0  0  0  0  0  0  0  0  0  0
    1.9817   -2.1932   30.1188 H   0  0  0  0  0  0  0  0  0  0  0  0
    1.3495   -2.8048   31.6627 H   0  0  0  0  0  0  0  0  0  0  0  0
   -0.0707   -3.1315   29.0293 H   0  0  0  0  0  0  0  0  0  0  0  0
    0.9943    0.5504   29.7992 H   0  0  0  0  0  0  0  0  0  0  0  0
    0.8104    2.3607   28.1051 H   0  0  0  0  0  0  0  0  0  0  0  0
   -2.0630    2.3917   25.8854 H   0  0  0  0  0  0  0  0  0  0  0  0
   -1.2560    3.4592   26.8674 H   0  0  0  0  0  0  0  0  0  0  0  0
   -2.4750   -1.2657   27.9941 H   0  0  0  0  0  0  0  0  0  0  0  0
    0.9679   -6.4798   34.1508 H   0  0  0  0  0  0  0  0  0  0  0  0
   -0.8172   -7.8934   33.0691 H   0  0  0  0  0  0  0  0  0  0  0  0
   -1.1624   -7.2790   29.5851 H   0  0  0  0  0  0  0  0  0  0  0  0
    6.6399   -4.4130   25.4066 H   0  0  0  0  0  0  0  0  0  0  0  0
    5.9714   -6.8442   24.4352 H   0  0  0  0  0  0  0  0  0  0  0  0
    6.5540   -9.0618   24.6416 H   0  0  0  0  0  0  0  0  0  0  0  0
    8.4019   -9.7859   28.8706 H   0  0  0  0  0  0  0  0  0  0  0  0
    8.8431   -8.3382   30.8488 H   0  0  0  0  0  0  0  0  0  0  0  0
    8.4206   -5.8971   30.6980 H   0  0  0  0  0  0  0  0  0  0  0  0
    7.5304   -4.9104   28.6436 H   0  0  0  0  0  0  0  0  0  0  0  0
  1  2  1  0
  2  3  1  0
  3  4  1  0
  4  5  1  0
  5  6  2  0
  6  7  1  0
  7  8  1  0
  8  9  2  3
  9 10  1  0
 10 11  1  0
 11 12  1  0
 12 13  1  0
 13 14  1  0
 14 15  1  0
 15 16  1  0
 16 17  2  0
 16 18  2  0
 16 19  1  0
 19 20  2  0
 20 21  1  0
 21 22  2  0
 22 23  1  0
 22 24  1  0
 24 25  2  0
 13 26  1  0
 26 27  2  0
 27 28  1  0
 28 29  2  0
 29 30  1  0
 30 31  1  0
 30 32  2  0
  8 33  1  0
 33 34  1  0
 34 35  2  0
 35 36  1  0
 36 37  1  0
 37 38  2  0
 37 39  1  0
 39 40  2  0
 40 41  1  0
 41 42  2  0
 42 43  1  0
 43 44  2  0
  7  3  2  0
 25 19  1  0
 32 26  1  0
 44 34  1  0
 44 39  1  0
  1 45  1  0
  1 46  1  0
  2 47  1  0
  2 48  1  0
  5 49  1  0
 10 50  1  0
 10 51  1  0
 11 52  1  0
 11 53  1  0
 12 54  1  0
 12 55  1  0
 13 56  1  0
 14 57  1  0
 14 58  1  0
 15 59  1  0
 20 60  1  0
 21 61  1  0
 23 62  1  0
 23 63  1  0
 25 64  1  0
 28 65  1  0
 29 66  1  0
 31 67  1  0
 33 68  1  0
 35 69  1  0
 36 70  1  0
 40 71  1  0
 41 72  1  0
 42 73  1  0
 43 74  1  0
M  END
>  <Energy>  (878) 
-58.672015587670664

>  <compound_id>  (878) 
4410

>  <target_id>  (878) 
1

>  <reference_id>  (878) 
13

>  <inspiration_ids>  (878) 
[155, 13]

>  <energy_score>  (878) 
-81.12992033195206

>  <distance_score>  (878) 
1.0128792526166641

>  <path>  (878) 
/opt/xchem-fragalysis-2/maxwin/BulkDock/SCRATCH/505735/C4410-P13/C4410-P13.minimised.mol

>  <scratch_subdir>  (878) 
/opt/xchem-fragalysis-2/maxwin/BulkDock/SCRATCH/505735/C4410-P13

>  <fragmenstein_runtime>  (878) 
22.632269144058228

>  <fragmenstein_outcome>  (878) 
too moved

>  <fragmenstein_mode>  (878) 
expansion

>  <fragmenstein_error>  (878) 


$$$$
C4411-P155
     RDKit          3D

 56 60  0  0  0  0  0  0  0  0999 V2000
   -1.1824   -3.8835   35.3112 N   0  0  0  0  0  0  0  0  0  0  0  0
   -0.0998   -3.6129   34.3971 C   0  0  0  0  0  0  0  0  0  0  0  0
    1.0644   -3.4110   34.6028 O   0  0  0  0  0  0  0  0  0  0  0  0
   -0.4732   -3.5454   32.9439 C   0  0  0  0  0  0  0  0  0  0  0  0
   -1.5773   -2.8253   32.4860 C   0  0  0  0  0  0  0  0  0  0  0  0
   -1.7852   -2.6770   31.1119 C   0  0  0  0  0  0  0  0  0  0  0  0
   -0.8848   -3.2219   30.1901 C   0  0  0  0  0  0  0  0  0  0  0  0
    0.2389   -3.9270   30.6274 C   0  0  0  0  0  0  0  0  0  0  0  0
    1.2722   -4.2975   29.6478 C   0  0  0  0  0  0  0  0  0  0  0  0
    2.2141   -5.2201   29.8842 C   0  0  0  0  0  0  0  0  0  0  0  0
    3.3981   -5.4188   28.9971 C   0  0  0  0  0  0  0  0  0  0  0  0
    3.6929   -6.5624   28.6697 O   0  0  0  0  0  0  0  0  0  0  0  0
    4.1773   -4.1817   28.6612 C   0  0  0  0  0  0  0  0  0  0  0  0
    4.7307   -4.0455   27.4296 C   0  0  0  0  0  0  0  0  0  0  0  0
    4.9583   -5.0483   26.4932 N   0  0  0  0  0  0  0  0  0  0  0  0
    5.7529   -6.2028   26.4869 C   0  0  0  0  0  0  0  0  0  0  0  0
    5.6823   -7.0214   25.4202 C   0  0  0  0  0  0  0  0  0  0  0  0
    6.3670   -8.1953   25.3032 N   0  0  0  0  0  0  0  0  0  0  0  0
    7.1943   -8.7103   26.2598 C   0  0  0  0  0  0  0  0  0  0  0  0
    7.7898   -9.7717   26.1121 O   0  0  0  0  0  0  0  0  0  0  0  0
    7.3403   -7.8861   27.4849 C   0  0  0  0  0  0  0  0  0  0  0  0
    8.1736   -8.3728   28.5065 C   0  0  0  0  0  0  0  0  0  0  0  0
    8.4387   -7.5856   29.6191 C   0  0  0  0  0  0  0  0  0  0  0  0
    7.9053   -6.3050   29.6851 C   0  0  0  0  0  0  0  0  0  0  0  0
    7.0686   -5.8321   28.6634 C   0  0  0  0  0  0  0  0  0  0  0  0
    6.7069   -6.6245   27.5662 C   0  0  0  0  0  0  0  0  0  0  0  0
    4.9128   -2.7121   26.9122 C   0  0  0  0  0  0  0  0  0  0  0  0
    4.6188   -2.4461   25.5963 N   0  0  0  0  0  0  0  0  0  0  0  0
    4.7205   -1.1361   25.5346 C   0  0  0  0  0  0  0  0  0  0  0  0
    5.0809   -0.5195   26.6935 O   0  0  0  0  0  0  0  0  0  0  0  0
    5.1948   -1.5478   27.5834 C   0  0  0  0  0  0  0  0  0  0  0  0
    5.4760   -1.1961   28.9836 C   0  0  0  0  0  0  0  0  0  0  0  0
    5.4559   -2.3491   29.8777 N   0  0  0  0  0  0  0  0  0  0  0  0
    4.2207   -3.1337   29.7694 C   0  0  0  0  0  0  0  0  0  0  0  0
    0.4278   -4.0879   32.0105 C   0  0  0  0  0  0  0  0  0  0  0  0
   -2.0836   -3.8903   34.7803 H   0  0  0  0  0  0  0  0  0  0  0  0
   -2.0400   -4.1248   34.7625 H   0  0  0  0  0  0  0  0  0  0  0  0
   -2.2434   -2.3144   33.1775 H   0  0  0  0  0  0  0  0  0  0  0  0
   -2.6263   -2.0878   30.7486 H   0  0  0  0  0  0  0  0  0  0  0  0
   -1.0546   -3.0448   29.1269 H   0  0  0  0  0  0  0  0  0  0  0  0
    1.2943   -3.7042   28.7344 H   0  0  0  0  0  0  0  0  0  0  0  0
    2.1857   -5.8567   30.7571 H   0  0  0  0  0  0  0  0  0  0  0  0
    4.9372   -4.6457   25.5493 H   0  0  0  0  0  0  0  0  0  0  0  0
    5.0395   -6.8091   24.5740 H   0  0  0  0  0  0  0  0  0  0  0  0
    6.2313   -8.7433   24.4473 H   0  0  0  0  0  0  0  0  0  0  0  0
    8.6273   -9.3585   28.4211 H   0  0  0  0  0  0  0  0  0  0  0  0
    9.0870   -7.9570   30.4081 H   0  0  0  0  0  0  0  0  0  0  0  0
    8.1490   -5.6608   30.5264 H   0  0  0  0  0  0  0  0  0  0  0  0
    6.7371   -4.8097   28.7373 H   0  0  0  0  0  0  0  0  0  0  0  0
    4.5655   -0.4875   24.6883 H   0  0  0  0  0  0  0  0  0  0  0  0
    4.7466   -0.4556   29.3328 H   0  0  0  0  0  0  0  0  0  0  0  0
    6.4598   -0.7183   29.0509 H   0  0  0  0  0  0  0  0  0  0  0  0
    6.2706   -2.9338   29.7077 H   0  0  0  0  0  0  0  0  0  0  0  0
    4.1522   -3.6509   30.7345 H   0  0  0  0  0  0  0  0  0  0  0  0
    3.3490   -2.4705   29.7161 H   0  0  0  0  0  0  0  0  0  0  0  0
    1.3276   -4.5631   32.3978 H   0  0  0  0  0  0  0  0  0  0  0  0
  1  2  1  0
  2  3  2  0
  2  4  1  0
  4  5  2  0
  5  6  1  0
  6  7  2  0
  7  8  1  0
  8  9  1  0
  9 10  2  3
 10 11  1  0
 11 12  2  0
 11 13  1  0
 13 14  2  0
 14 15  1  0
 15 16  1  0
 16 17  2  0
 17 18  1  0
 18 19  1  0
 19 20  2  0
 19 21  1  0
 21 22  2  0
 22 23  1  0
 23 24  2  0
 24 25  1  0
 25 26  2  0
 14 27  1  0
 27 28  1  0
 28 29  2  0
 29 30  1  0
 30 31  1  0
 31 32  1  0
 32 33  1  0
 33 34  1  0
  8 35  2  0
 35  4  1  0
 34 13  1  0
 26 16  1  0
 31 27  2  0
 26 21  1  0
  1 36  1  0
  1 37  1  0
  5 38  1  0
  6 39  1  0
  7 40  1  0
  9 41  1  0
 10 42  1  0
 15 43  1  0
 17 44  1  0
 18 45  1  0
 22 46  1  0
 23 47  1  0
 24 48  1  0
 25 49  1  0
 29 50  1  0
 32 51  1  0
 32 52  1  0
 33 53  1  0
 34 54  1  0
 34 55  1  0
 35 56  1  0
M  END
>  <Energy>  (879) 
272.32106282533812

>  <compound_id>  (879) 
4411

>  <target_id>  (879) 
1

>  <reference_id>  (879) 
155

>  <inspiration_ids>  (879) 
[155, 40]

>  <energy_score>  (879) 
122.31317469045132

>  <distance_score>  (879) 
2.186441602407593

>  <path>  (879) 
/opt/xchem-fragalysis-2/maxwin/BulkDock/SCRATCH/505735/C4411-P155/C4411-P155.minimised.mol

>  <scratch_subdir>  (879) 
/opt/xchem-fragalysis-2/maxwin/BulkDock/SCRATCH/505735/C4411-P155

>  <fragmenstein_runtime>  (879) 
9.714164018630981

>  <fragmenstein_outcome>  (879) 
too moved

>  <fragmenstein_mode>  (879) 
expansion

>  <fragmenstein_error>  (879) 


$$$$
C4411-P40
     RDKit          3D

 56 60  0  0  0  0  0  0  0  0999 V2000
   -0.8977   -5.5725   34.5110 N   0  0  0  0  0  0  0  0  0  0  0  0
    0.1719   -5.9521   33.6181 C   0  0  0  0  0  0  0  0  0  0  0  0
    1.0627   -6.7444   33.7577 O   0  0  0  0  0  0  0  0  0  0  0  0
    0.2295   -5.2305   32.3001 C   0  0  0  0  0  0  0  0  0  0  0  0
    0.0746   -3.8489   32.1814 C   0  0  0  0  0  0  0  0  0  0  0  0
    0.3215   -3.2329   30.9486 C   0  0  0  0  0  0  0  0  0  0  0  0
    0.7824   -3.9764   29.8534 C   0  0  0  0  0  0  0  0  0  0  0  0
    0.9876   -5.3510   29.9702 C   0  0  0  0  0  0  0  0  0  0  0  0
    1.5080   -6.1382   28.8444 C   0  0  0  0  0  0  0  0  0  0  0  0
    2.7377   -6.1683   28.3019 C   0  0  0  0  0  0  0  0  0  0  0  0
    3.9585   -5.5682   28.8835 C   0  0  0  0  0  0  0  0  0  0  0  0
    4.6690   -6.2411   29.6165 O   0  0  0  0  0  0  0  0  0  0  0  0
    4.2836   -4.1631   28.5683 C   0  0  0  0  0  0  0  0  0  0  0  0
    4.6843   -3.8574   27.3089 C   0  0  0  0  0  0  0  0  0  0  0  0
    5.0370   -4.7893   26.3211 N   0  0  0  0  0  0  0  0  0  0  0  0
    5.8069   -5.9551   26.3535 C   0  0  0  0  0  0  0  0  0  0  0  0
    5.6414   -6.8857   25.3973 C   0  0  0  0  0  0  0  0  0  0  0  0
    6.2564   -8.1051   25.4172 N   0  0  0  0  0  0  0  0  0  0  0  0
    7.0766   -8.5525   26.4176 C   0  0  0  0  0  0  0  0  0  0  0  0
    7.5888   -9.6656   26.3978 O   0  0  0  0  0  0  0  0  0  0  0  0
    7.3622   -7.5700   27.4910 C   0  0  0  0  0  0  0  0  0  0  0  0
    8.2380   -7.9446   28.5204 C   0  0  0  0  0  0  0  0  0  0  0  0
    8.6635   -6.9959   29.4422 C   0  0  0  0  0  0  0  0  0  0  0  0
    8.2520   -5.6740   29.3021 C   0  0  0  0  0  0  0  0  0  0  0  0
    7.3673   -5.3095   28.2776 C   0  0  0  0  0  0  0  0  0  0  0  0
    6.8394   -6.2621   27.3934 C   0  0  0  0  0  0  0  0  0  0  0  0
    4.7661   -2.4925   26.8622 C   0  0  0  0  0  0  0  0  0  0  0  0
    4.7838   -2.1994   25.5193 N   0  0  0  0  0  0  0  0  0  0  0  0
    4.7656   -0.8835   25.5021 C   0  0  0  0  0  0  0  0  0  0  0  0
    4.7698   -0.2836   26.7240 O   0  0  0  0  0  0  0  0  0  0  0  0
    4.7578   -1.3354   27.5962 C   0  0  0  0  0  0  0  0  0  0  0  0
    4.6929   -1.0461   29.0326 C   0  0  0  0  0  0  0  0  0  0  0  0
    3.7204   -1.9232   29.6843 N   0  0  0  0  0  0  0  0  0  0  0  0
    4.2084   -3.2974   29.8039 C   0  0  0  0  0  0  0  0  0  0  0  0
    0.6382   -5.9734   31.1758 C   0  0  0  0  0  0  0  0  0  0  0  0
   -1.4140   -4.7699   34.0997 H   0  0  0  0  0  0  0  0  0  0  0  0
   -1.5524   -4.9400   34.0069 H   0  0  0  0  0  0  0  0  0  0  0  0
   -0.1701   -3.2265   33.0380 H   0  0  0  0  0  0  0  0  0  0  0  0
    0.2053   -2.1549   30.8446 H   0  0  0  0  0  0  0  0  0  0  0  0
    0.9997   -3.4561   28.9203 H   0  0  0  0  0  0  0  0  0  0  0  0
    0.7772   -6.8234   28.4376 H   0  0  0  0  0  0  0  0  0  0  0  0
    2.9604   -6.8427   27.4797 H   0  0  0  0  0  0  0  0  0  0  0  0
    5.1809   -4.3019   25.4239 H   0  0  0  0  0  0  0  0  0  0  0  0
    4.9611   -6.7417   24.5642 H   0  0  0  0  0  0  0  0  0  0  0  0
    6.0898   -8.7459   24.6339 H   0  0  0  0  0  0  0  0  0  0  0  0
    8.5921   -8.9710   28.5916 H   0  0  0  0  0  0  0  0  0  0  0  0
    9.3363   -7.2810   30.2458 H   0  0  0  0  0  0  0  0  0  0  0  0
    8.6163   -4.9185   29.9934 H   0  0  0  0  0  0  0  0  0  0  0  0
    7.1050   -4.2614   28.1876 H   0  0  0  0  0  0  0  0  0  0  0  0
    4.7426   -0.2265   24.6442 H   0  0  0  0  0  0  0  0  0  0  0  0
    4.3647   -0.0104   29.1787 H   0  0  0  0  0  0  0  0  0  0  0  0
    5.6829   -1.1299   29.4953 H   0  0  0  0  0  0  0  0  0  0  0  0
    3.5628   -1.5644   30.6256 H   0  0  0  0  0  0  0  0  0  0  0  0
    5.1942   -3.3021   30.2895 H   0  0  0  0  0  0  0  0  0  0  0  0
    3.5469   -3.7826   30.5317 H   0  0  0  0  0  0  0  0  0  0  0  0
    0.7251   -7.0510   31.2859 H   0  0  0  0  0  0  0  0  0  0  0  0
  1  2  1  0
  2  3  2  0
  2  4  1  0
  4  5  2  0
  5  6  1  0
  6  7  2  0
  7  8  1  0
  8  9  1  0
  9 10  2  3
 10 11  1  0
 11 12  2  0
 11 13  1  0
 13 14  2  0
 14 15  1  0
 15 16  1  0
 16 17  2  0
 17 18  1  0
 18 19  1  0
 19 20  2  0
 19 21  1  0
 21 22  2  0
 22 23  1  0
 23 24  2  0
 24 25  1  0
 25 26  2  0
 14 27  1  0
 27 28  1  0
 28 29  2  0
 29 30  1  0
 30 31  1  0
 31 32  1  0
 32 33  1  0
 33 34  1  0
  8 35  2  0
 35  4  1  0
 34 13  1  0
 26 16  1  0
 31 27  2  0
 26 21  1  0
  1 36  1  0
  1 37  1  0
  5 38  1  0
  6 39  1  0
  7 40  1  0
  9 41  1  0
 10 42  1  0
 15 43  1  0
 17 44  1  0
 18 45  1  0
 22 46  1  0
 23 47  1  0
 24 48  1  0
 25 49  1  0
 29 50  1  0
 32 51  1  0
 32 52  1  0
 33 53  1  0
 34 54  1  0
 34 55  1  0
 35 56  1  0
M  END
>  <Energy>  (880) 
267.0449198522648

>  <compound_id>  (880) 
4411

>  <target_id>  (880) 
1

>  <reference_id>  (880) 
40

>  <inspiration_ids>  (880) 
[155, 40]

>  <energy_score>  (880) 
117.03703171737902

>  <distance_score>  (880) 
1.519605329677382

>  <path>  (880) 
/opt/xchem-fragalysis-2/maxwin/BulkDock/SCRATCH/505735/C4411-P40/C4411-P40.minimised.mol

>  <scratch_subdir>  (880) 
/opt/xchem-fragalysis-2/maxwin/BulkDock/SCRATCH/505735/C4411-P40

>  <fragmenstein_runtime>  (880) 
6.729598522186279

>  <fragmenstein_outcome>  (880) 
too moved

>  <fragmenstein_mode>  (880) 
expansion

>  <fragmenstein_error>  (880) 


$$$$
C4412-P155
     RDKit          3D

 77 81  0  0  0  0  0  0  0  0999 V2000
    6.9065   -1.3709   32.4373 C   0  0  0  0  0  0  0  0  0  0  0  0
    5.8570   -0.6225   31.6708 C   0  0  0  0  0  0  0  0  0  0  0  0
    6.0496    0.7030   31.3442 C   0  0  0  0  0  0  0  0  0  0  0  0
    5.0185    1.2980   30.6631 C   0  0  0  0  0  0  0  0  0  0  0  0
    5.0918    2.6003   30.2617 O   0  0  0  0  0  0  0  0  0  0  0  0
    3.8785    0.6830   30.3403 N   0  0  0  0  0  0  0  0  0  0  0  0
    3.7686   -0.6086   30.6907 C   0  0  0  0  0  0  0  0  0  0  0  0
    2.4365   -1.2861   30.4909 C   0  0  0  0  0  0  0  0  0  0  0  0
    1.8456   -1.0416   29.1043 C   0  0  0  0  0  0  0  0  0  0  0  0
    0.3766   -1.1538   29.0975 N   0  0  0  0  0  0  0  0  0  0  0  0
   -0.5341    0.1624   29.5839 S   0  0  0  0  0  0  0  0  0  0  0  0
   -1.8977   -0.3039   29.6370 O   0  0  0  0  0  0  0  0  0  0  0  0
    0.0847    0.7761   30.7339 O   0  0  0  0  0  0  0  0  0  0  0  0
   -0.3196    1.1552   28.2510 N   0  0  0  0  0  0  0  0  0  0  0  0
   -1.5267    1.4170   27.4219 C   0  0  0  0  0  0  0  0  0  0  0  0
   -1.3716    2.6542   26.5395 C   0  0  0  0  0  0  0  0  0  0  0  0
   -0.0491    2.7247   25.9942 O   0  0  0  0  0  0  0  0  0  0  0  0
    0.9368    2.9699   27.0270 C   0  0  0  0  0  0  0  0  0  0  0  0
    2.3706    2.8185   26.4124 C   0  0  0  0  0  0  0  0  0  0  0  0
    3.3833    1.7394   26.8652 C   0  0  0  0  0  0  0  0  0  0  0  0
    3.2567    0.5069   26.1069 N   0  0  0  0  0  0  0  0  0  0  0  0
    3.9378   -0.6146   26.4151 C   0  0  0  0  0  0  0  0  0  0  0  0
    3.6882   -1.8293   26.0007 N   0  0  0  0  0  0  0  0  0  0  0  0
    4.6600   -2.6428   26.5815 C   0  0  0  0  0  0  0  0  0  0  0  0
    4.6419   -4.1074   26.3213 C   0  0  0  0  0  0  0  0  0  0  0  0
    3.8108   -4.4767   25.5889 O   0  0  0  0  0  0  0  0  0  0  0  0
    5.8029   -4.8823   26.9946 N   0  0  0  0  0  0  0  0  0  0  0  0
    6.2165   -6.1848   26.8383 C   0  0  0  0  0  0  0  0  0  0  0  0
    5.9435   -6.8753   25.7155 C   0  0  0  0  0  0  0  0  0  0  0  0
    6.4454   -8.1300   25.4644 N   0  0  0  0  0  0  0  0  0  0  0  0
    7.2749   -8.8175   26.3183 C   0  0  0  0  0  0  0  0  0  0  0  0
    7.7588   -9.9104   26.0447 O   0  0  0  0  0  0  0  0  0  0  0  0
    7.5354   -8.1593   27.6254 C   0  0  0  0  0  0  0  0  0  0  0  0
    8.2392   -8.8662   28.6104 C   0  0  0  0  0  0  0  0  0  0  0  0
    8.4539   -8.2892   29.8584 C   0  0  0  0  0  0  0  0  0  0  0  0
    7.9649   -7.0137   30.1220 C   0  0  0  0  0  0  0  0  0  0  0  0
    7.2492   -6.3166   29.1432 C   0  0  0  0  0  0  0  0  0  0  0  0
    7.0301   -6.8666   27.8724 C   0  0  0  0  0  0  0  0  0  0  0  0
    5.5309   -1.8131   27.2608 C   0  0  0  0  0  0  0  0  0  0  0  0
    6.8012   -1.9644   27.9846 C   0  0  0  0  0  0  0  0  0  0  0  0
    6.6181   -2.8671   29.1119 N   0  0  0  0  0  0  0  0  0  0  0  0
    5.0393   -0.5301   27.2057 O   0  0  0  0  0  0  0  0  0  0  0  0
    0.6034    2.3088   28.3867 C   0  0  0  0  0  0  0  0  0  0  0  0
    4.7390   -1.3000   31.3274 N   0  0  0  0  0  0  0  0  0  0  0  0
    6.6082   -2.4131   32.5904 H   0  0  0  0  0  0  0  0  0  0  0  0
    7.8531   -1.3655   31.8878 H   0  0  0  0  0  0  0  0  0  0  0  0
    7.0573   -0.9110   33.4188 H   0  0  0  0  0  0  0  0  0  0  0  0
    6.9547    1.2289   31.6105 H   0  0  0  0  0  0  0  0  0  0  0  0
    5.8811    2.9967   30.6585 H   0  0  0  0  0  0  0  0  0  0  0  0
    1.7741   -0.9396   31.2898 H   0  0  0  0  0  0  0  0  0  0  0  0
    2.5496   -2.3670   30.6427 H   0  0  0  0  0  0  0  0  0  0  0  0
    2.1287   -0.0824   28.6817 H   0  0  0  0  0  0  0  0  0  0  0  0
    2.2330   -1.8033   28.4195 H   0  0  0  0  0  0  0  0  0  0  0  0
   -0.0138   -1.5207   28.2246 H   0  0  0  0  0  0  0  0  0  0  0  0
   -2.4034    1.5784   28.0505 H   0  0  0  0  0  0  0  0  0  0  0  0
   -1.6953    0.5369   26.7943 H   0  0  0  0  0  0  0  0  0  0  0  0
   -1.5789    3.5734   27.1014 H   0  0  0  0  0  0  0  0  0  0  0  0
   -2.0845    2.6134   25.7096 H   0  0  0  0  0  0  0  0  0  0  0  0
    0.8507    4.0513   27.2128 H   0  0  0  0  0  0  0  0  0  0  0  0
    2.8722    3.7700   26.6449 H   0  0  0  0  0  0  0  0  0  0  0  0
    2.2911    2.7998   25.3173 H   0  0  0  0  0  0  0  0  0  0  0  0
    4.3908    2.1363   26.6855 H   0  0  0  0  0  0  0  0  0  0  0  0
    3.3123    1.5667   27.9371 H   0  0  0  0  0  0  0  0  0  0  0  0
    3.2548    0.6416   25.0930 H   0  0  0  0  0  0  0  0  0  0  0  0
    6.2908   -4.2687   27.6402 H   0  0  0  0  0  0  0  0  0  0  0  0
    5.3578   -6.4616   24.9003 H   0  0  0  0  0  0  0  0  0  0  0  0
    6.2230   -8.5740   24.5651 H   0  0  0  0  0  0  0  0  0  0  0  0
    8.6053   -9.8716   28.4093 H   0  0  0  0  0  0  0  0  0  0  0  0
    8.9908   -8.8435   30.6247 H   0  0  0  0  0  0  0  0  0  0  0  0
    8.1162   -6.5707   31.1032 H   0  0  0  0  0  0  0  0  0  0  0  0
    6.8345   -5.3546   29.4165 H   0  0  0  0  0  0  0  0  0  0  0  0
    7.1598   -0.9961   28.3509 H   0  0  0  0  0  0  0  0  0  0  0  0
    7.5701   -2.3615   27.3135 H   0  0  0  0  0  0  0  0  0  0  0  0
    7.4795   -2.8724   29.6595 H   0  0  0  0  0  0  0  0  0  0  0  0
    5.9117   -2.4614   29.7403 H   0  0  0  0  0  0  0  0  0  0  0  0
    0.0886    3.0556   29.0078 H   0  0  0  0  0  0  0  0  0  0  0  0
    1.5122    2.0492   28.9300 H   0  0  0  0  0  0  0  0  0  0  0  0
  1  2  1  0
  2  3  2  0
  3  4  1  0
  4  5  1  0
  4  6  2  0
  6  7  1  0
  7  8  1  0
  8  9  1  0
  9 10  1  0
 10 11  1  0
 11 12  2  0
 11 13  2  0
 11 14  1  0
 14 15  1  0
 15 16  1  0
 16 17  1  0
 17 18  1  0
 18 19  1  0
 19 20  1  0
 20 21  1  0
 21 22  1  0
 22 23  2  0
 23 24  1  0
 24 25  1  0
 25 26  2  0
 25 27  1  0
 27 28  1  0
 28 29  2  0
 29 30  1  0
 30 31  1  0
 31 32  2  0
 31 33  1  0
 33 34  2  0
 34 35  1  0
 35 36  2  0
 36 37  1  0
 37 38  2  0
 24 39  2  0
 39 40  1  0
 40 41  1  0
 39 42  1  0
 18 43  1  0
  7 44  2  0
 44  2  1  0
 43 14  1  0
 42 22  1  0
 38 28  1  0
 38 33  1  0
  1 45  1  0
  1 46  1  0
  1 47  1  0
  3 48  1  0
  5 49  1  0
  8 50  1  0
  8 51  1  0
  9 52  1  0
  9 53  1  0
 10 54  1  0
 15 55  1  0
 15 56  1  0
 16 57  1  0
 16 58  1  0
 18 59  1  0
 19 60  1  0
 19 61  1  0
 20 62  1  0
 20 63  1  0
 21 64  1  0
 27 65  1  0
 29 66  1  0
 30 67  1  0
 34 68  1  0
 35 69  1  0
 36 70  1  0
 37 71  1  0
 40 72  1  0
 40 73  1  0
 41 74  1  0
 41 75  1  0
 43 76  1  0
 43 77  1  0
M  END
>  <Energy>  (881) 
-137.78797108540647

>  <compound_id>  (881) 
4412

>  <target_id>  (881) 
1

>  <reference_id>  (881) 
155

>  <inspiration_ids>  (881) 
[155, 44]

>  <energy_score>  (881) 
-121.03040502928269

>  <distance_score>  (881) 
0.9341959750523549

>  <path>  (881) 
/opt/xchem-fragalysis-2/maxwin/BulkDock/SCRATCH/505735/C4412-P155/C4412-P155.minimised.mol

>  <scratch_subdir>  (881) 
/opt/xchem-fragalysis-2/maxwin/BulkDock/SCRATCH/505735/C4412-P155

>  <fragmenstein_runtime>  (881) 
8.889235019683838

>  <fragmenstein_outcome>  (881) 
acceptable

>  <fragmenstein_mode>  (881) 
expansion

>  <fragmenstein_error>  (881) 


$$$$
C4412-P44
     RDKit          3D

 77 81  0  0  0  0  0  0  0  0999 V2000
    6.7093   -0.6737   32.5259 C   0  0  0  0  0  0  0  0  0  0  0  0
    5.5357   -0.0747   31.8085 C   0  0  0  0  0  0  0  0  0  0  0  0
    5.4884    1.2826   31.5718 C   0  0  0  0  0  0  0  0  0  0  0  0
    4.3717    1.7259   30.9117 C   0  0  0  0  0  0  0  0  0  0  0  0
    4.2089    3.0417   30.5906 O   0  0  0  0  0  0  0  0  0  0  0  0
    3.3683    0.9366   30.5203 N   0  0  0  0  0  0  0  0  0  0  0  0
    3.4936   -0.3734   30.7783 C   0  0  0  0  0  0  0  0  0  0  0  0
    2.3390   -1.2819   30.4395 C   0  0  0  0  0  0  0  0  0  0  0  0
    1.7147   -0.9791   29.0760 C   0  0  0  0  0  0  0  0  0  0  0  0
    0.2507   -1.1329   29.0840 N   0  0  0  0  0  0  0  0  0  0  0  0
   -0.6955    0.0851   29.7339 S   0  0  0  0  0  0  0  0  0  0  0  0
   -2.0492   -0.4096   29.7217 O   0  0  0  0  0  0  0  0  0  0  0  0
   -0.0881    0.5612   30.9518 O   0  0  0  0  0  0  0  0  0  0  0  0
   -0.5258    1.2444   28.5689 N   0  0  0  0  0  0  0  0  0  0  0  0
   -1.4811    1.3456   27.4499 C   0  0  0  0  0  0  0  0  0  0  0  0
   -1.5511    2.7884   26.9494 C   0  0  0  0  0  0  0  0  0  0  0  0
   -0.2717    3.2809   26.5217 O   0  0  0  0  0  0  0  0  0  0  0  0
    0.8418    2.9649   27.4043 C   0  0  0  0  0  0  0  0  0  0  0  0
    1.7683    2.0228   26.6050 C   0  0  0  0  0  0  0  0  0  0  0  0
    3.2466    1.8404   26.9944 C   0  0  0  0  0  0  0  0  0  0  0  0
    3.8931    0.9116   26.0483 N   0  0  0  0  0  0  0  0  0  0  0  0
    4.3766   -0.2892   26.4264 C   0  0  0  0  0  0  0  0  0  0  0  0
    4.1874   -1.4529   25.8596 N   0  0  0  0  0  0  0  0  0  0  0  0
    4.9764   -2.3686   26.5557 C   0  0  0  0  0  0  0  0  0  0  0  0
    4.8866   -3.8318   26.2490 C   0  0  0  0  0  0  0  0  0  0  0  0
    3.9682   -4.1707   25.6091 O   0  0  0  0  0  0  0  0  0  0  0  0
    6.0490   -4.6628   26.8600 N   0  0  0  0  0  0  0  0  0  0  0  0
    6.3542   -5.9972   26.7347 C   0  0  0  0  0  0  0  0  0  0  0  0
    5.9918   -6.7244   25.6627 C   0  0  0  0  0  0  0  0  0  0  0  0
    6.3881   -8.0301   25.4828 N   0  0  0  0  0  0  0  0  0  0  0  0
    7.1725   -8.7371   26.3638 C   0  0  0  0  0  0  0  0  0  0  0  0
    7.5834   -9.8699   26.1400 O   0  0  0  0  0  0  0  0  0  0  0  0
    7.4995   -8.0364   27.6295 C   0  0  0  0  0  0  0  0  0  0  0  0
    8.1410   -8.7479   28.6520 C   0  0  0  0  0  0  0  0  0  0  0  0
    8.4329   -8.1173   29.8575 C   0  0  0  0  0  0  0  0  0  0  0  0
    8.0921   -6.7827   30.0381 C   0  0  0  0  0  0  0  0  0  0  0  0
    7.4508   -6.0765   29.0172 C   0  0  0  0  0  0  0  0  0  0  0  0
    7.1343   -6.6865   27.7943 C   0  0  0  0  0  0  0  0  0  0  0  0
    5.6999   -1.6438   27.4844 C   0  0  0  0  0  0  0  0  0  0  0  0
    6.7460   -1.9227   28.4793 C   0  0  0  0  0  0  0  0  0  0  0  0
    6.2254   -2.7255   29.5752 N   0  0  0  0  0  0  0  0  0  0  0  0
    5.2729   -0.3363   27.4445 O   0  0  0  0  0  0  0  0  0  0  0  0
    0.3926    2.3893   28.7603 C   0  0  0  0  0  0  0  0  0  0  0  0
    4.5616   -0.9197   31.3972 N   0  0  0  0  0  0  0  0  0  0  0  0
    6.8461   -0.1914   33.4989 H   0  0  0  0  0  0  0  0  0  0  0  0
    6.5564   -1.7440   32.6973 H   0  0  0  0  0  0  0  0  0  0  0  0
    7.6187   -0.5481   31.9302 H   0  0  0  0  0  0  0  0  0  0  0  0
    6.2836    1.9428   31.8858 H   0  0  0  0  0  0  0  0  0  0  0  0
    4.9436    3.5426   30.9745 H   0  0  0  0  0  0  0  0  0  0  0  0
    1.6143   -1.2151   31.2567 H   0  0  0  0  0  0  0  0  0  0  0  0
    2.6920   -2.3212   30.4383 H   0  0  0  0  0  0  0  0  0  0  0  0
    1.9629    0.0052   28.6918 H   0  0  0  0  0  0  0  0  0  0  0  0
    2.1151   -1.6866   28.3394 H   0  0  0  0  0  0  0  0  0  0  0  0
   -0.1674   -1.4843   28.2200 H   0  0  0  0  0  0  0  0  0  0  0  0
   -2.4826    1.0375   27.7519 H   0  0  0  0  0  0  0  0  0  0  0  0
   -1.1395    0.6830   26.6499 H   0  0  0  0  0  0  0  0  0  0  0  0
   -1.9358    3.4594   27.7265 H   0  0  0  0  0  0  0  0  0  0  0  0
   -2.2310    2.8563   26.0941 H   0  0  0  0  0  0  0  0  0  0  0  0
    1.3748    3.9073   27.5729 H   0  0  0  0  0  0  0  0  0  0  0  0
    1.7562    2.3818   25.5672 H   0  0  0  0  0  0  0  0  0  0  0  0
    1.3057    1.0318   26.6114 H   0  0  0  0  0  0  0  0  0  0  0  0
    3.7561    2.8075   26.9230 H   0  0  0  0  0  0  0  0  0  0  0  0
    3.3502    1.4999   28.0230 H   0  0  0  0  0  0  0  0  0  0  0  0
    3.4551    0.8790   25.1291 H   0  0  0  0  0  0  0  0  0  0  0  0
    6.6283   -4.0661   27.4235 H   0  0  0  0  0  0  0  0  0  0  0  0
    5.4185   -6.3077   24.8385 H   0  0  0  0  0  0  0  0  0  0  0  0
    6.1305   -8.5141   24.6132 H   0  0  0  0  0  0  0  0  0  0  0  0
    8.3930   -9.7972   28.5120 H   0  0  0  0  0  0  0  0  0  0  0  0
    8.9203   -8.6654   30.6584 H   0  0  0  0  0  0  0  0  0  0  0  0
    8.3175   -6.2882   30.9804 H   0  0  0  0  0  0  0  0  0  0  0  0
    7.1943   -5.0461   29.2237 H   0  0  0  0  0  0  0  0  0  0  0  0
    7.1491   -0.9893   28.8892 H   0  0  0  0  0  0  0  0  0  0  0  0
    7.5964   -2.4287   28.0120 H   0  0  0  0  0  0  0  0  0  0  0  0
    5.6936   -2.1070   30.2037 H   0  0  0  0  0  0  0  0  0  0  0  0
    5.5236   -3.3899   29.2538 H   0  0  0  0  0  0  0  0  0  0  0  0
   -0.1431    3.1618   29.3243 H   0  0  0  0  0  0  0  0  0  0  0  0
    1.2696    2.1040   29.3437 H   0  0  0  0  0  0  0  0  0  0  0  0
  1  2  1  0
  2  3  2  0
  3  4  1  0
  4  5  1  0
  4  6  2  0
  6  7  1  0
  7  8  1  0
  8  9  1  0
  9 10  1  0
 10 11  1  0
 11 12  2  0
 11 13  2  0
 11 14  1  0
 14 15  1  0
 15 16  1  0
 16 17  1  0
 17 18  1  0
 18 19  1  0
 19 20  1  0
 20 21  1  0
 21 22  1  0
 22 23  2  0
 23 24  1  0
 24 25  1  0
 25 26  2  0
 25 27  1  0
 27 28  1  0
 28 29  2  0
 29 30  1  0
 30 31  1  0
 31 32  2  0
 31 33  1  0
 33 34  2  0
 34 35  1  0
 35 36  2  0
 36 37  1  0
 37 38  2  0
 24 39  2  0
 39 40  1  0
 40 41  1  0
 39 42  1  0
 18 43  1  0
  7 44  2  0
 44  2  1  0
 43 14  1  0
 42 22  1  0
 38 28  1  0
 38 33  1  0
  1 45  1  0
  1 46  1  0
  1 47  1  0
  3 48  1  0
  5 49  1  0
  8 50  1  0
  8 51  1  0
  9 52  1  0
  9 53  1  0
 10 54  1  0
 15 55  1  0
 15 56  1  0
 16 57  1  0
 16 58  1  0
 18 59  1  0
 19 60  1  0
 19 61  1  0
 20 62  1  0
 20 63  1  0
 21 64  1  0
 27 65  1  0
 29 66  1  0
 30 67  1  0
 34 68  1  0
 35 69  1  0
 36 70  1  0
 37 71  1  0
 40 72  1  0
 40 73  1  0
 41 74  1  0
 41 75  1  0
 43 76  1  0
 43 77  1  0
M  END
>  <Energy>  (882) 
-141.67262564433923

>  <compound_id>  (882) 
4412

>  <target_id>  (882) 
1

>  <reference_id>  (882) 
44

>  <inspiration_ids>  (882) 
[155, 44]

>  <energy_score>  (882) 
-124.91505958821463

>  <distance_score>  (882) 
0.9883079090313434

>  <path>  (882) 
/opt/xchem-fragalysis-2/maxwin/BulkDock/SCRATCH/505735/C4412-P44/C4412-P44.minimised.mol

>  <scratch_subdir>  (882) 
/opt/xchem-fragalysis-2/maxwin/BulkDock/SCRATCH/505735/C4412-P44

>  <fragmenstein_runtime>  (882) 
9.985526084899902

>  <fragmenstein_outcome>  (882) 
acceptable

>  <fragmenstein_mode>  (882) 
expansion

>  <fragmenstein_error>  (882) 


$$$$
C4413-P155
     RDKit          3D

 54 58  0  0  0  0  0  0  0  0999 V2000
    5.7177   -4.9878   26.6636 C   0  0  0  0  0  0  0  0  0  0  0  0
    5.9550   -3.5977   26.0836 C   0  0  0  0  0  0  0  0  0  0  0  0
    4.5018   -2.5581   25.9189 S   0  0  0  0  0  0  0  0  0  0  0  0
    3.6234   -3.3709   25.1132 O   0  0  0  0  0  0  0  0  0  0  0  0
    4.8680   -1.0210   25.7673 N   0  0  0  0  0  0  0  0  0  0  0  0
    3.8618    0.2162   25.3538 N   0  0  0  0  0  0  0  0  0  0  0  0
    3.8261    1.5531   25.9093 C   0  0  0  0  0  0  0  0  0  0  0  0
    4.5435    1.8608   27.0224 C   0  0  0  0  0  0  0  0  0  0  0  0
    4.1676    2.9213   27.8848 C   0  0  0  0  0  0  0  0  0  0  0  0
    4.6388    3.3810   29.0220 N   0  0  0  0  0  0  0  0  0  0  0  0
    3.6922    4.2574   29.5399 N   0  0  0  0  0  0  0  0  0  0  0  0
    2.6812    4.3129   28.6990 C   0  0  0  0  0  0  0  0  0  0  0  0
    1.4909    4.9405   28.8222 N   0  0  0  0  0  0  0  0  0  0  0  0
    2.9941    3.5654   27.5936 N   0  0  0  0  0  0  0  0  0  0  0  0
    2.3794    3.4867   26.3706 C   0  0  0  0  0  0  0  0  0  0  0  0
    2.8433    2.6338   25.4297 C   0  0  0  0  0  0  0  0  0  0  0  0
    2.4042    3.0646   24.0661 C   0  0  0  0  0  0  0  0  0  0  0  0
    3.1326    2.8756   22.8978 C   0  0  0  0  0  0  0  0  0  0  0  0
    2.7729    3.3931   21.6857 N   0  0  0  0  0  0  0  0  0  0  0  0
    1.6618    4.1566   21.6813 C   0  0  0  0  0  0  0  0  0  0  0  0
    0.9131    4.3610   22.8210 C   0  0  0  0  0  0  0  0  0  0  0  0
    1.2518    3.8177   24.0134 N   0  0  0  0  0  0  0  0  0  0  0  0
    3.6074   -2.6071   27.3247 N   0  0  0  0  0  0  0  0  0  0  0  0
    3.8759   -1.7340   28.4231 C   0  0  0  0  0  0  0  0  0  0  0  0
    5.2477   -1.9896   28.9753 C   0  0  0  0  0  0  0  0  0  0  0  0
    5.4496   -3.0392   29.8982 C   0  0  0  0  0  0  0  0  0  0  0  0
    6.7390   -3.4200   30.2673 C   0  0  0  0  0  0  0  0  0  0  0  0
    7.7978   -2.7463   29.7023 C   0  0  0  0  0  0  0  0  0  0  0  0
    7.6117   -1.7031   28.8373 C   0  0  0  0  0  0  0  0  0  0  0  0
    6.3561   -1.2893   28.4760 C   0  0  0  0  0  0  0  0  0  0  0  0
    8.7832   -1.1754   28.3956 O   0  0  0  0  0  0  0  0  0  0  0  0
    9.7332   -2.0181   29.0780 C   0  0  0  0  0  0  0  0  0  0  0  0
    9.1135   -3.0091   29.9252 O   0  0  0  0  0  0  0  0  0  0  0  0
    6.6474   -5.5650   26.6508 H   0  0  0  0  0  0  0  0  0  0  0  0
    5.3636   -4.9386   27.6953 H   0  0  0  0  0  0  0  0  0  0  0  0
    4.9699   -5.5355   26.0813 H   0  0  0  0  0  0  0  0  0  0  0  0
    6.7452   -3.0674   26.6059 H   0  0  0  0  0  0  0  0  0  0  0  0
    6.2844   -3.7642   25.0611 H   0  0  0  0  0  0  0  0  0  0  0  0
    3.6739    0.2114   24.3408 H   0  0  0  0  0  0  0  0  0  0  0  0
    5.2779    1.1768   27.4090 H   0  0  0  0  0  0  0  0  0  0  0  0
    1.2698    5.2745   29.7590 H   0  0  0  0  0  0  0  0  0  0  0  0
    0.6685    4.5550   28.3684 H   0  0  0  0  0  0  0  0  0  0  0  0
    1.6395    4.2613   26.2018 H   0  0  0  0  0  0  0  0  0  0  0  0
    4.0225    2.2660   22.8649 H   0  0  0  0  0  0  0  0  0  0  0  0
    1.3861    4.5977   20.7306 H   0  0  0  0  0  0  0  0  0  0  0  0
    0.0169    4.9711   22.8133 H   0  0  0  0  0  0  0  0  0  0  0  0
    3.5260   -3.5684   27.6186 H   0  0  0  0  0  0  0  0  0  0  0  0
    3.1343   -1.9094   29.2126 H   0  0  0  0  0  0  0  0  0  0  0  0
    3.7488   -0.6796   28.1638 H   0  0  0  0  0  0  0  0  0  0  0  0
    4.6003   -3.5876   30.3002 H   0  0  0  0  0  0  0  0  0  0  0  0
    6.9084   -4.2368   30.9601 H   0  0  0  0  0  0  0  0  0  0  0  0
    6.2715   -0.4943   27.7535 H   0  0  0  0  0  0  0  0  0  0  0  0
   10.3827   -1.3868   29.6952 H   0  0  0  0  0  0  0  0  0  0  0  0
   10.3486   -2.5314   28.3301 H   0  0  0  0  0  0  0  0  0  0  0  0
  1  2  1  0
  2  3  1  0
  3  4  2  0
  3  5  2  0
  5  6  1  0
  6  7  1  0
  7  8  2  0
  8  9  1  0
  9 10  2  0
 10 11  1  0
 11 12  2  0
 12 13  1  0
 12 14  1  0
 14 15  1  0
 15 16  2  0
 16 17  1  0
 17 18  2  0
 18 19  1  0
 19 20  2  0
 20 21  1  0
 21 22  2  0
  3 23  1  0
 23 24  1  0
 24 25  1  0
 25 26  2  0
 26 27  1  0
 27 28  2  0
 28 29  1  0
 29 30  2  0
 29 31  1  0
 31 32  1  0
 32 33  1  0
 16  7  1  0
 22 17  1  0
 30 25  1  0
 14  9  1  0
 33 28  1  0
  1 34  1  0
  1 35  1  0
  1 36  1  0
  2 37  1  0
  2 38  1  0
  6 39  1  0
  8 40  1  0
 13 41  1  0
 13 42  1  0
 15 43  1  0
 18 44  1  0
 20 45  1  0
 21 46  1  0
 23 47  1  0
 24 48  1  0
 24 49  1  0
 26 50  1  0
 27 51  1  0
 30 52  1  0
 32 53  1  0
 32 54  1  0
M  END
>  <Energy>  (883) 
93.362024872954422

>  <compound_id>  (883) 
4413

>  <target_id>  (883) 
1

>  <reference_id>  (883) 
155

>  <inspiration_ids>  (883) 
[155, 53]

>  <energy_score>  (883) 
-60.3485245657416

>  <distance_score>  (883) 
2.624102810090509

>  <path>  (883) 
/opt/xchem-fragalysis-2/maxwin/BulkDock/SCRATCH/505735/C4413-P155/C4413-P155.minimised.mol

>  <scratch_subdir>  (883) 
/opt/xchem-fragalysis-2/maxwin/BulkDock/SCRATCH/505735/C4413-P155

>  <fragmenstein_runtime>  (883) 
5.859633445739746

>  <fragmenstein_outcome>  (883) 
too moved

>  <fragmenstein_mode>  (883) 
expansion

>  <fragmenstein_error>  (883) 


$$$$
C4413-P53
     RDKit          3D

 54 58  0  0  0  0  0  0  0  0999 V2000
    6.2639   -4.7394   26.5175 C   0  0  0  0  0  0  0  0  0  0  0  0
    6.3159   -3.2122   26.4911 C   0  0  0  0  0  0  0  0  0  0  0  0
    4.8413   -2.4160   25.8969 S   0  0  0  0  0  0  0  0  0  0  0  0
    4.2257   -3.4027   25.0464 O   0  0  0  0  0  0  0  0  0  0  0  0
    5.0909   -0.8688   25.6815 N   0  0  0  0  0  0  0  0  0  0  0  0
    3.9982    0.2620   25.2069 N   0  0  0  0  0  0  0  0  0  0  0  0
    3.9620    1.6173   25.7147 C   0  0  0  0  0  0  0  0  0  0  0  0
    4.7652    1.9689   26.7577 C   0  0  0  0  0  0  0  0  0  0  0  0
    4.3849    2.9980   27.6617 C   0  0  0  0  0  0  0  0  0  0  0  0
    4.9060    3.4791   28.7687 N   0  0  0  0  0  0  0  0  0  0  0  0
    3.9540    4.3038   29.3568 N   0  0  0  0  0  0  0  0  0  0  0  0
    2.8836    4.3057   28.5918 C   0  0  0  0  0  0  0  0  0  0  0  0
    1.6794    4.8834   28.7993 N   0  0  0  0  0  0  0  0  0  0  0  0
    3.1504    3.5666   27.4686 N   0  0  0  0  0  0  0  0  0  0  0  0
    2.4393    3.4452   26.3014 C   0  0  0  0  0  0  0  0  0  0  0  0
    2.8786    2.6242   25.3227 C   0  0  0  0  0  0  0  0  0  0  0  0
    2.3334    3.0355   23.9923 C   0  0  0  0  0  0  0  0  0  0  0  0
    2.9873    2.8326   22.7848 C   0  0  0  0  0  0  0  0  0  0  0  0
    2.5626    3.3547   21.5975 N   0  0  0  0  0  0  0  0  0  0  0  0
    1.4572    4.1233   21.6545 C   0  0  0  0  0  0  0  0  0  0  0  0
    0.7739    4.3266   22.8348 C   0  0  0  0  0  0  0  0  0  0  0  0
    1.1796    3.7858   24.0082 N   0  0  0  0  0  0  0  0  0  0  0  0
    3.5904   -2.2853   26.9847 N   0  0  0  0  0  0  0  0  0  0  0  0
    3.5708   -2.8495   28.2903 C   0  0  0  0  0  0  0  0  0  0  0  0
    4.7330   -2.3552   29.0992 C   0  0  0  0  0  0  0  0  0  0  0  0
    5.5321   -3.2787   29.8131 C   0  0  0  0  0  0  0  0  0  0  0  0
    6.7679   -2.8906   30.3304 C   0  0  0  0  0  0  0  0  0  0  0  0
    7.1640   -1.5876   30.1335 C   0  0  0  0  0  0  0  0  0  0  0  0
    6.3551   -0.6694   29.5143 C   0  0  0  0  0  0  0  0  0  0  0  0
    5.1172   -1.0057   29.0319 C   0  0  0  0  0  0  0  0  0  0  0  0
    6.9202    0.5642   29.4545 O   0  0  0  0  0  0  0  0  0  0  0  0
    8.1819    0.3197   30.1052 C   0  0  0  0  0  0  0  0  0  0  0  0
    8.3426   -1.0468   30.5448 O   0  0  0  0  0  0  0  0  0  0  0  0
    6.1225   -5.1479   25.5120 H   0  0  0  0  0  0  0  0  0  0  0  0
    7.2023   -5.1395   26.9134 H   0  0  0  0  0  0  0  0  0  0  0  0
    5.4443   -5.0976   27.1462 H   0  0  0  0  0  0  0  0  0  0  0  0
    6.6084   -2.8025   27.4487 H   0  0  0  0  0  0  0  0  0  0  0  0
    7.1062   -2.8842   25.8184 H   0  0  0  0  0  0  0  0  0  0  0  0
    3.7681    0.1805   24.2015 H   0  0  0  0  0  0  0  0  0  0  0  0
    5.5728    1.3173   27.0756 H   0  0  0  0  0  0  0  0  0  0  0  0
    1.5222    5.2310   29.7426 H   0  0  0  0  0  0  0  0  0  0  0  0
    0.8392    4.4700   28.4074 H   0  0  0  0  0  0  0  0  0  0  0  0
    1.6433    4.1737   26.1940 H   0  0  0  0  0  0  0  0  0  0  0  0
    3.8577    2.1965   22.7026 H   0  0  0  0  0  0  0  0  0  0  0  0
    1.1311    4.5644   20.7198 H   0  0  0  0  0  0  0  0  0  0  0  0
   -0.1195    4.9393   22.8760 H   0  0  0  0  0  0  0  0  0  0  0  0
    3.3887   -1.2930   26.9969 H   0  0  0  0  0  0  0  0  0  0  0  0
    3.5778   -3.9429   28.2217 H   0  0  0  0  0  0  0  0  0  0  0  0
    2.6420   -2.5785   28.8052 H   0  0  0  0  0  0  0  0  0  0  0  0
    5.2303   -4.3207   29.8972 H   0  0  0  0  0  0  0  0  0  0  0  0
    7.4119   -3.5955   30.8441 H   0  0  0  0  0  0  0  0  0  0  0  0
    4.5072   -0.2524   28.5514 H   0  0  0  0  0  0  0  0  0  0  0  0
    8.2622    0.9794   30.9767 H   0  0  0  0  0  0  0  0  0  0  0  0
    8.9910    0.5598   29.4058 H   0  0  0  0  0  0  0  0  0  0  0  0
  1  2  1  0
  2  3  1  0
  3  4  2  0
  3  5  2  0
  5  6  1  0
  6  7  1  0
  7  8  2  0
  8  9  1  0
  9 10  2  0
 10 11  1  0
 11 12  2  0
 12 13  1  0
 12 14  1  0
 14 15  1  0
 15 16  2  0
 16 17  1  0
 17 18  2  0
 18 19  1  0
 19 20  2  0
 20 21  1  0
 21 22  2  0
  3 23  1  0
 23 24  1  0
 24 25  1  0
 25 26  2  0
 26 27  1  0
 27 28  2  0
 28 29  1  0
 29 30  2  0
 29 31  1  0
 31 32  1  0
 32 33  1  0
 16  7  1  0
 22 17  1  0
 30 25  1  0
 14  9  1  0
 33 28  1  0
  1 34  1  0
  1 35  1  0
  1 36  1  0
  2 37  1  0
  2 38  1  0
  6 39  1  0
  8 40  1  0
 13 41  1  0
 13 42  1  0
 15 43  1  0
 18 44  1  0
 20 45  1  0
 21 46  1  0
 23 47  1  0
 24 48  1  0
 24 49  1  0
 26 50  1  0
 27 51  1  0
 30 52  1  0
 32 53  1  0
 32 54  1  0
M  END
>  <Energy>  (884) 
93.098182581426997

>  <compound_id>  (884) 
4413

>  <target_id>  (884) 
1

>  <reference_id>  (884) 
53

>  <inspiration_ids>  (884) 
[155, 53]

>  <energy_score>  (884) 
-60.61236685726743

>  <distance_score>  (884) 
2.602388544729783

>  <path>  (884) 
/opt/xchem-fragalysis-2/maxwin/BulkDock/SCRATCH/505735/C4413-P53/C4413-P53.minimised.mol

>  <scratch_subdir>  (884) 
/opt/xchem-fragalysis-2/maxwin/BulkDock/SCRATCH/505735/C4413-P53

>  <fragmenstein_runtime>  (884) 
5.920748472213745

>  <fragmenstein_outcome>  (884) 
too moved

>  <fragmenstein_mode>  (884) 
expansion

>  <fragmenstein_error>  (884) 


$$$$
C4417-P155
     RDKit          3D

 55 58  0  0  0  0  0  0  0  0999 V2000
    8.2475  -10.0018   25.7201 C   0  0  0  0  0  0  0  0  0  0  0  0
    7.5407   -9.3714   26.7860 O   0  0  0  0  0  0  0  0  0  0  0  0
    7.4702   -8.0094   26.6850 C   0  0  0  0  0  0  0  0  0  0  0  0
    8.0431   -7.3405   25.8361 O   0  0  0  0  0  0  0  0  0  0  0  0
    6.6364   -7.4690   27.8350 C   0  0  0  0  0  0  0  0  0  0  0  0
    6.0951   -6.1628   27.5968 N   0  0  0  0  0  0  0  0  0  0  0  0
    4.8433   -5.4456   28.2190 C   0  0  0  0  0  0  0  0  0  0  0  0
    4.0016   -5.8577   28.9822 N   0  0  0  0  0  0  0  0  0  0  0  0
    2.9134   -5.0894   29.6066 C   0  0  0  0  0  0  0  0  0  0  0  0
    3.2476   -4.6624   31.0652 C   0  0  0  0  0  0  0  0  0  0  0  0
    2.5302   -5.4506   32.1472 N   0  0  0  0  0  0  0  0  0  0  0  0
    1.1821   -5.1690   32.5240 C   0  0  0  0  0  0  0  0  0  0  0  0
    0.8032   -3.8662   32.4498 C   0  0  0  0  0  0  0  0  0  0  0  0
    1.6958   -2.9123   33.1635 C   0  0  0  0  0  0  0  0  0  0  0  0
    2.1281   -1.7153   32.6025 C   0  0  0  0  0  0  0  0  0  0  0  0
    3.1310   -0.9691   33.1314 N   0  0  0  0  0  0  0  0  0  0  0  0
    3.6773   -1.4548   34.2682 C   0  0  0  0  0  0  0  0  0  0  0  0
    3.2316   -2.6181   34.8642 C   0  0  0  0  0  0  0  0  0  0  0  0
    2.2312   -3.3560   34.3386 N   0  0  0  0  0  0  0  0  0  0  0  0
   -0.0637   -3.5785   31.2928 C   0  0  0  0  0  0  0  0  0  0  0  0
   -0.6016   -4.5651   30.5418 C   0  0  0  0  0  0  0  0  0  0  0  0
   -0.5735   -5.9065   31.0245 C   0  0  0  0  0  0  0  0  0  0  0  0
   -1.1802   -7.0345   30.7077 N   0  0  0  0  0  0  0  0  0  0  0  0
   -1.0218   -7.8969   31.7722 N   0  0  0  0  0  0  0  0  0  0  0  0
   -0.2794   -7.2878   32.6767 C   0  0  0  0  0  0  0  0  0  0  0  0
   -0.0819   -7.6534   33.9610 N   0  0  0  0  0  0  0  0  0  0  0  0
    0.2283   -6.1245   32.1172 N   0  0  0  0  0  0  0  0  0  0  0  0
    4.9064   -4.0515   27.7741 C   0  0  0  0  0  0  0  0  0  0  0  0
    5.9008   -3.1384   28.1876 C   0  0  0  0  0  0  0  0  0  0  0  0
    5.5413   -1.9566   27.6117 C   0  0  0  0  0  0  0  0  0  0  0  0
    6.0879   -0.6035   27.7319 C   0  0  0  0  0  0  0  0  0  0  0  0
    4.4435   -2.1469   26.8264 O   0  0  0  0  0  0  0  0  0  0  0  0
    4.0398   -3.4790   26.9212 N   0  0  0  0  0  0  0  0  0  0  0  0
    9.2901   -9.6699   25.6993 H   0  0  0  0  0  0  0  0  0  0  0  0
    7.7563   -9.7990   24.7651 H   0  0  0  0  0  0  0  0  0  0  0  0
    8.2305  -11.0812   25.8933 H   0  0  0  0  0  0  0  0  0  0  0  0
    5.8125   -8.1511   28.0141 H   0  0  0  0  0  0  0  0  0  0  0  0
    7.2688   -7.4463   28.7277 H   0  0  0  0  0  0  0  0  0  0  0  0
    6.5455   -5.5375   26.9231 H   0  0  0  0  0  0  0  0  0  0  0  0
    2.0234   -5.7225   29.6051 H   0  0  0  0  0  0  0  0  0  0  0  0
    2.6482   -4.2011   29.0252 H   0  0  0  0  0  0  0  0  0  0  0  0
    4.3253   -4.7027   31.2614 H   0  0  0  0  0  0  0  0  0  0  0  0
    3.0206   -3.6009   31.1325 H   0  0  0  0  0  0  0  0  0  0  0  0
    2.6196   -6.4492   32.0093 H   0  0  0  0  0  0  0  0  0  0  0  0
    1.7339   -1.3381   31.6661 H   0  0  0  0  0  0  0  0  0  0  0  0
    4.4816   -0.8692   34.6984 H   0  0  0  0  0  0  0  0  0  0  0  0
    3.6657   -2.9901   35.7846 H   0  0  0  0  0  0  0  0  0  0  0  0
   -0.1444   -2.5504   30.9510 H   0  0  0  0  0  0  0  0  0  0  0  0
   -1.1029   -4.3195   29.6111 H   0  0  0  0  0  0  0  0  0  0  0  0
    0.1013   -6.9403   34.6627 H   0  0  0  0  0  0  0  0  0  0  0  0
   -0.6898   -8.4006   34.3215 H   0  0  0  0  0  0  0  0  0  0  0  0
    6.7249   -3.3151   28.8624 H   0  0  0  0  0  0  0  0  0  0  0  0
    5.5926    0.0891   27.0440 H   0  0  0  0  0  0  0  0  0  0  0  0
    5.9533   -0.2225   28.7490 H   0  0  0  0  0  0  0  0  0  0  0  0
    7.1579   -0.5964   27.5018 H   0  0  0  0  0  0  0  0  0  0  0  0
  1  2  1  0
  2  3  1  0
  3  4  2  0
  3  5  1  0
  5  6  1  0
  6  7  1  0
  7  8  2  3
  8  9  1  0
  9 10  1  0
 10 11  1  0
 11 12  1  0
 12 13  2  0
 13 14  1  0
 14 15  2  0
 15 16  1  0
 16 17  2  0
 17 18  1  0
 18 19  2  0
 13 20  1  0
 20 21  2  0
 21 22  1  0
 22 23  2  0
 23 24  1  0
 24 25  2  0
 25 26  1  0
 25 27  1  0
  7 28  1  0
 28 29  1  0
 29 30  2  0
 30 31  1  0
 30 32  1  0
 32 33  1  0
 27 12  1  0
 33 28  2  0
 19 14  1  0
 27 22  1  0
  1 34  1  0
  1 35  1  0
  1 36  1  0
  5 37  1  0
  5 38  1  0
  6 39  1  0
  9 40  1  0
  9 41  1  0
 10 42  1  0
 10 43  1  0
 11 44  1  0
 15 45  1  0
 17 46  1  0
 18 47  1  0
 20 48  1  0
 21 49  1  0
 26 50  1  0
 26 51  1  0
 29 52  1  0
 31 53  1  0
 31 54  1  0
 31 55  1  0
M  END
>  <Energy>  (885) 
279.21812561541714

>  <compound_id>  (885) 
4417

>  <target_id>  (885) 
1

>  <reference_id>  (885) 
155

>  <inspiration_ids>  (885) 
[155, 132]

>  <energy_score>  (885) 
13.18519923871213

>  <distance_score>  (885) 
1.7251183639969083

>  <path>  (885) 
/opt/xchem-fragalysis-2/maxwin/BulkDock/SCRATCH/505735/C4417-P155/C4417-P155.minimised.mol

>  <scratch_subdir>  (885) 
/opt/xchem-fragalysis-2/maxwin/BulkDock/SCRATCH/505735/C4417-P155

>  <fragmenstein_runtime>  (885) 
7.837190628051758

>  <fragmenstein_outcome>  (885) 
too moved

>  <fragmenstein_mode>  (885) 
expansion

>  <fragmenstein_error>  (885) 


$$$$
C4417-P132
     RDKit          3D

 55 58  0  0  0  0  0  0  0  0999 V2000
   10.3419   -8.0216   30.7026 C   0  0  0  0  0  0  0  0  0  0  0  0
    9.1032   -8.1703   30.0067 O   0  0  0  0  0  0  0  0  0  0  0  0
    8.4989   -6.9808   29.6990 C   0  0  0  0  0  0  0  0  0  0  0  0
    8.9612   -5.8799   29.9739 O   0  0  0  0  0  0  0  0  0  0  0  0
    7.2002   -7.2481   28.9427 C   0  0  0  0  0  0  0  0  0  0  0  0
    6.4697   -6.0349   28.7008 N   0  0  0  0  0  0  0  0  0  0  0  0
    5.7127   -5.0857   29.6908 C   0  0  0  0  0  0  0  0  0  0  0  0
    5.4998   -5.1954   30.8749 N   0  0  0  0  0  0  0  0  0  0  0  0
    4.6482   -4.3180   31.6909 C   0  0  0  0  0  0  0  0  0  0  0  0
    4.1809   -4.9611   33.0554 C   0  0  0  0  0  0  0  0  0  0  0  0
    2.8160   -5.5893   33.1383 N   0  0  0  0  0  0  0  0  0  0  0  0
    1.6330   -5.2059   32.4817 C   0  0  0  0  0  0  0  0  0  0  0  0
    1.3827   -3.9529   32.0106 C   0  0  0  0  0  0  0  0  0  0  0  0
    2.0397   -2.8002   32.6642 C   0  0  0  0  0  0  0  0  0  0  0  0
    2.6569   -1.7838   31.9473 C   0  0  0  0  0  0  0  0  0  0  0  0
    3.4377   -0.8436   32.5340 N   0  0  0  0  0  0  0  0  0  0  0  0
    3.5453   -0.9309   33.8790 C   0  0  0  0  0  0  0  0  0  0  0  0
    2.8901   -1.9003   34.6113 C   0  0  0  0  0  0  0  0  0  0  0  0
    2.1223   -2.8419   34.0240 N   0  0  0  0  0  0  0  0  0  0  0  0
    0.5205   -3.8372   30.8322 C   0  0  0  0  0  0  0  0  0  0  0  0
   -0.1472   -4.8872   30.3266 C   0  0  0  0  0  0  0  0  0  0  0  0
   -0.2040   -6.0882   31.0713 C   0  0  0  0  0  0  0  0  0  0  0  0
   -0.9410   -7.1743   30.9675 N   0  0  0  0  0  0  0  0  0  0  0  0
   -0.7727   -7.8906   32.1275 N   0  0  0  0  0  0  0  0  0  0  0  0
    0.0830   -7.2399   32.8896 C   0  0  0  0  0  0  0  0  0  0  0  0
    0.3202   -7.4625   34.2051 N   0  0  0  0  0  0  0  0  0  0  0  0
    0.6299   -6.1774   32.1763 N   0  0  0  0  0  0  0  0  0  0  0  0
    5.3559   -3.8937   28.9051 C   0  0  0  0  0  0  0  0  0  0  0  0
    5.8449   -2.5930   29.1414 C   0  0  0  0  0  0  0  0  0  0  0  0
    5.4332   -1.8688   28.0626 C   0  0  0  0  0  0  0  0  0  0  0  0
    5.6555   -0.4794   27.6765 C   0  0  0  0  0  0  0  0  0  0  0  0
    4.6972   -2.6528   27.2319 O   0  0  0  0  0  0  0  0  0  0  0  0
    4.6653   -3.9465   27.7464 N   0  0  0  0  0  0  0  0  0  0  0  0
   10.7431   -9.0203   30.8962 H   0  0  0  0  0  0  0  0  0  0  0  0
   10.1842   -7.5203   31.6627 H   0  0  0  0  0  0  0  0  0  0  0  0
   11.0634   -7.4723   30.0897 H   0  0  0  0  0  0  0  0  0  0  0  0
    7.4509   -7.7170   27.9862 H   0  0  0  0  0  0  0  0  0  0  0  0
    6.5855   -7.9376   29.5247 H   0  0  0  0  0  0  0  0  0  0  0  0
    6.5321   -5.5892   27.7849 H   0  0  0  0  0  0  0  0  0  0  0  0
    3.7950   -4.0224   31.0848 H   0  0  0  0  0  0  0  0  0  0  0  0
    5.2354   -3.4273   31.9418 H   0  0  0  0  0  0  0  0  0  0  0  0
    4.9179   -5.7078   33.3717 H   0  0  0  0  0  0  0  0  0  0  0  0
    4.2345   -4.1954   33.8327 H   0  0  0  0  0  0  0  0  0  0  0  0
    2.8155   -6.5412   33.4900 H   0  0  0  0  0  0  0  0  0  0  0  0
    2.6066   -1.7264   30.8652 H   0  0  0  0  0  0  0  0  0  0  0  0
    4.1644   -0.1800   34.3571 H   0  0  0  0  0  0  0  0  0  0  0  0
    2.9641   -1.9484   35.6913 H   0  0  0  0  0  0  0  0  0  0  0  0
    0.5010   -2.8920   30.2949 H   0  0  0  0  0  0  0  0  0  0  0  0
   -0.7000   -4.7853   29.3997 H   0  0  0  0  0  0  0  0  0  0  0  0
    0.5293   -6.6414   34.7740 H   0  0  0  0  0  0  0  0  0  0  0  0
   -0.3913   -8.0451   34.6508 H   0  0  0  0  0  0  0  0  0  0  0  0
    6.4707   -2.2583   29.9556 H   0  0  0  0  0  0  0  0  0  0  0  0
    5.5645    0.1864   28.5406 H   0  0  0  0  0  0  0  0  0  0  0  0
    6.6563   -0.3521   27.2542 H   0  0  0  0  0  0  0  0  0  0  0  0
    4.9250   -0.1545   26.9291 H   0  0  0  0  0  0  0  0  0  0  0  0
  1  2  1  0
  2  3  1  0
  3  4  2  0
  3  5  1  0
  5  6  1  0
  6  7  1  0
  7  8  2  3
  8  9  1  0
  9 10  1  0
 10 11  1  0
 11 12  1  0
 12 13  2  0
 13 14  1  0
 14 15  2  0
 15 16  1  0
 16 17  2  0
 17 18  1  0
 18 19  2  0
 13 20  1  0
 20 21  2  0
 21 22  1  0
 22 23  2  0
 23 24  1  0
 24 25  2  0
 25 26  1  0
 25 27  1  0
  7 28  1  0
 28 29  1  0
 29 30  2  0
 30 31  1  0
 30 32  1  0
 32 33  1  0
 27 12  1  0
 33 28  2  0
 19 14  1  0
 27 22  1  0
  1 34  1  0
  1 35  1  0
  1 36  1  0
  5 37  1  0
  5 38  1  0
  6 39  1  0
  9 40  1  0
  9 41  1  0
 10 42  1  0
 10 43  1  0
 11 44  1  0
 15 45  1  0
 17 46  1  0
 18 47  1  0
 20 48  1  0
 21 49  1  0
 26 50  1  0
 26 51  1  0
 29 52  1  0
 31 53  1  0
 31 54  1  0
 31 55  1  0
M  END
>  <Energy>  (886) 
240.86559769046045

>  <compound_id>  (886) 
4417

>  <target_id>  (886) 
1

>  <reference_id>  (886) 
132

>  <inspiration_ids>  (886) 
[155, 132]

>  <energy_score>  (886) 
-25.167328686247004

>  <distance_score>  (886) 
2.864027319647061

>  <path>  (886) 
/opt/xchem-fragalysis-2/maxwin/BulkDock/SCRATCH/505735/C4417-P132/C4417-P132.minimised.mol

>  <scratch_subdir>  (886) 
/opt/xchem-fragalysis-2/maxwin/BulkDock/SCRATCH/505735/C4417-P132

>  <fragmenstein_runtime>  (886) 
10.596250534057617

>  <fragmenstein_outcome>  (886) 
too moved

>  <fragmenstein_mode>  (886) 
expansion

>  <fragmenstein_error>  (886) 


$$$$
C4422-P155
     RDKit          3D

 32 34  0  0  0  0  0  0  0  0999 V2000
    3.7977   -5.9156   25.8721 C   0  0  0  0  0  0  0  0  0  0  0  0
    5.1704   -5.0734   26.4973 S   0  0  0  0  0  0  0  0  0  0  0  0
    6.2866   -5.4973   25.6866 O   0  0  0  0  0  0  0  0  0  0  0  0
    5.0976   -5.3445   27.9177 O   0  0  0  0  0  0  0  0  0  0  0  0
    4.8656   -3.4172   26.1330 N   0  0  0  0  0  0  0  0  0  0  0  0
    5.6970   -2.5577   26.9573 C   0  0  0  0  0  0  0  0  0  0  0  0
    7.0628   -2.5158   26.6822 C   0  0  0  0  0  0  0  0  0  0  0  0
    7.9901   -2.9434   27.5612 N   0  0  0  0  0  0  0  0  0  0  0  0
    7.4753   -3.4703   28.6784 C   0  0  0  0  0  0  0  0  0  0  0  0
    7.8858   -4.8897   28.9576 C   0  0  0  0  0  0  0  0  0  0  0  0
    7.8078   -5.4589   30.2979 C   0  0  0  0  0  0  0  0  0  0  0  0
    7.8610   -6.7795   30.5209 C   0  0  0  0  0  0  0  0  0  0  0  0
    7.9539   -7.6704   29.4294 C   0  0  0  0  0  0  0  0  0  0  0  0
    7.9294   -8.9785   29.3703 N   0  0  0  0  0  0  0  0  0  0  0  0
    7.9694   -9.3342   28.0441 N   0  0  0  0  0  0  0  0  0  0  0  0
    8.0229   -8.2412   27.3147 C   0  0  0  0  0  0  0  0  0  0  0  0
    7.9481   -8.1693   25.9650 N   0  0  0  0  0  0  0  0  0  0  0  0
    8.0775   -7.1363   28.1558 N   0  0  0  0  0  0  0  0  0  0  0  0
    8.1217   -5.7552   27.9298 C   0  0  0  0  0  0  0  0  0  0  0  0
    6.1887   -3.0723   29.0843 C   0  0  0  0  0  0  0  0  0  0  0  0
    5.2774   -2.5499   28.2240 N   0  0  0  0  0  0  0  0  0  0  0  0
    2.9674   -5.2187   25.7946 H   0  0  0  0  0  0  0  0  0  0  0  0
    4.0761   -6.3891   24.9375 H   0  0  0  0  0  0  0  0  0  0  0  0
    3.5841   -6.7249   26.5721 H   0  0  0  0  0  0  0  0  0  0  0  0
    5.1087   -3.2670   25.1558 H   0  0  0  0  0  0  0  0  0  0  0  0
    7.4629   -2.3765   25.6951 H   0  0  0  0  0  0  0  0  0  0  0  0
    7.7318   -4.7765   31.1397 H   0  0  0  0  0  0  0  0  0  0  0  0
    7.8185   -7.1920   31.5227 H   0  0  0  0  0  0  0  0  0  0  0  0
    7.5102   -8.9827   25.5347 H   0  0  0  0  0  0  0  0  0  0  0  0
    7.5426   -7.3104   25.5774 H   0  0  0  0  0  0  0  0  0  0  0  0
    8.2289   -5.4440   26.8994 H   0  0  0  0  0  0  0  0  0  0  0  0
    5.7663   -3.3988   30.0297 H   0  0  0  0  0  0  0  0  0  0  0  0
  1  2  1  0
  2  3  2  0
  2  4  2  0
  2  5  1  0
  5  6  1  0
  6  7  2  0
  7  8  1  0
  8  9  2  0
  9 10  1  0
 10 11  1  0
 11 12  2  0
 12 13  1  0
 13 14  2  0
 14 15  1  0
 15 16  2  0
 16 17  1  0
 16 18  1  0
 18 19  1  0
  9 20  1  0
 20 21  2  0
 21  6  1  0
 19 10  2  0
 18 13  1  0
  1 22  1  0
  1 23  1  0
  1 24  1  0
  5 25  1  0
  7 26  1  0
 11 27  1  0
 12 28  1  0
 17 29  1  0
 17 30  1  0
 19 31  1  0
 20 32  1  0
M  END
>  <Energy>  (887) 
67.005993422974711

>  <compound_id>  (887) 
4422

>  <target_id>  (887) 
1

>  <reference_id>  (887) 
155

>  <inspiration_ids>  (887) 
[155, 154]

>  <energy_score>  (887) 
10.8070200913902

>  <distance_score>  (887) 
2.550085571148494

>  <path>  (887) 
/opt/xchem-fragalysis-2/maxwin/BulkDock/SCRATCH/505735/C4422-P155/C4422-P155.minimised.mol

>  <scratch_subdir>  (887) 
/opt/xchem-fragalysis-2/maxwin/BulkDock/SCRATCH/505735/C4422-P155

>  <fragmenstein_runtime>  (887) 
21.565882921218872

>  <fragmenstein_outcome>  (887) 
too moved

>  <fragmenstein_mode>  (887) 
expansion

>  <fragmenstein_error>  (887) 


$$$$
C4422-P154
     RDKit          3D

 32 34  0  0  0  0  0  0  0  0999 V2000
    2.4387   -4.0234   25.9622 C   0  0  0  0  0  0  0  0  0  0  0  0
    4.0543   -3.9986   26.6312 S   0  0  0  0  0  0  0  0  0  0  0  0
    4.9930   -4.5744   25.6975 O   0  0  0  0  0  0  0  0  0  0  0  0
    3.9094   -4.5482   27.9645 O   0  0  0  0  0  0  0  0  0  0  0  0
    4.2838   -2.2829   26.6212 N   0  0  0  0  0  0  0  0  0  0  0  0
    5.4229   -1.9097   27.4080 C   0  0  0  0  0  0  0  0  0  0  0  0
    6.6692   -2.1245   26.8423 C   0  0  0  0  0  0  0  0  0  0  0  0
    7.5222   -3.0383   27.3313 N   0  0  0  0  0  0  0  0  0  0  0  0
    7.0744   -3.6880   28.4134 C   0  0  0  0  0  0  0  0  0  0  0  0
    7.4712   -5.1014   28.5659 C   0  0  0  0  0  0  0  0  0  0  0  0
    7.7836   -5.6339   29.8869 C   0  0  0  0  0  0  0  0  0  0  0  0
    8.0597   -6.9260   30.0902 C   0  0  0  0  0  0  0  0  0  0  0  0
    8.0596   -7.8107   28.9946 C   0  0  0  0  0  0  0  0  0  0  0  0
    8.3315   -9.0873   28.9296 N   0  0  0  0  0  0  0  0  0  0  0  0
    8.1544   -9.4789   27.6288 N   0  0  0  0  0  0  0  0  0  0  0  0
    7.7999   -8.4352   26.9118 C   0  0  0  0  0  0  0  0  0  0  0  0
    7.5130   -8.4326   25.5940 N   0  0  0  0  0  0  0  0  0  0  0  0
    7.7525   -7.3162   27.7313 N   0  0  0  0  0  0  0  0  0  0  0  0
    7.4681   -5.9631   27.5113 C   0  0  0  0  0  0  0  0  0  0  0  0
    6.0246   -3.1534   29.1646 C   0  0  0  0  0  0  0  0  0  0  0  0
    5.2117   -2.1803   28.6948 N   0  0  0  0  0  0  0  0  0  0  0  0
    2.4145   -3.4476   25.0366 H   0  0  0  0  0  0  0  0  0  0  0  0
    2.1787   -5.0641   25.8000 H   0  0  0  0  0  0  0  0  0  0  0  0
    1.7481   -3.5830   26.6853 H   0  0  0  0  0  0  0  0  0  0  0  0
    4.3829   -1.9657   25.6541 H   0  0  0  0  0  0  0  0  0  0  0  0
    6.9246   -1.7327   25.8774 H   0  0  0  0  0  0  0  0  0  0  0  0
    7.8103   -4.9477   30.7291 H   0  0  0  0  0  0  0  0  0  0  0  0
    8.2994   -7.3136   31.0736 H   0  0  0  0  0  0  0  0  0  0  0  0
    6.9082   -7.7019   25.2183 H   0  0  0  0  0  0  0  0  0  0  0  0
    7.2230   -9.3308   25.2061 H   0  0  0  0  0  0  0  0  0  0  0  0
    7.2431   -5.6651   26.4931 H   0  0  0  0  0  0  0  0  0  0  0  0
    5.6890   -3.6123   30.0887 H   0  0  0  0  0  0  0  0  0  0  0  0
  1  2  1  0
  2  3  2  0
  2  4  2  0
  2  5  1  0
  5  6  1  0
  6  7  2  0
  7  8  1  0
  8  9  2  0
  9 10  1  0
 10 11  1  0
 11 12  2  0
 12 13  1  0
 13 14  2  0
 14 15  1  0
 15 16  2  0
 16 17  1  0
 16 18  1  0
 18 19  1  0
  9 20  1  0
 20 21  2  0
 21  6  1  0
 19 10  2  0
 18 13  1  0
  1 22  1  0
  1 23  1  0
  1 24  1  0
  5 25  1  0
  7 26  1  0
 11 27  1  0
 12 28  1  0
 17 29  1  0
 17 30  1  0
 19 31  1  0
 20 32  1  0
M  END
>  <Energy>  (888) 
48.511725792671044

>  <compound_id>  (888) 
4422

>  <target_id>  (888) 
1

>  <reference_id>  (888) 
154

>  <inspiration_ids>  (888) 
[155, 154]

>  <energy_score>  (888) 
-7.687247538915528

>  <distance_score>  (888) 
2.48818785620212

>  <path>  (888) 
/opt/xchem-fragalysis-2/maxwin/BulkDock/SCRATCH/505735/C4422-P154/C4422-P154.minimised.mol

>  <scratch_subdir>  (888) 
/opt/xchem-fragalysis-2/maxwin/BulkDock/SCRATCH/505735/C4422-P154

>  <fragmenstein_runtime>  (888) 
21.665148735046387

>  <fragmenstein_outcome>  (888) 
too moved

>  <fragmenstein_mode>  (888) 
expansion

>  <fragmenstein_error>  (888) 


$$$$
C3878-P155
     RDKit          3D

 39 43  0  0  0  0  0  0  0  0999 V2000
    8.9193  -10.5419   28.3098 N   0  0  0  0  0  0  0  0  0  0  0  0
    8.9534   -9.7964   29.4316 C   0  0  0  0  0  0  0  0  0  0  0  0
    9.3781  -10.2112   30.6025 N   0  0  0  0  0  0  0  0  0  0  0  0
    9.1448   -9.2278   31.5251 N   0  0  0  0  0  0  0  0  0  0  0  0
    8.5785   -8.2234   30.8992 C   0  0  0  0  0  0  0  0  0  0  0  0
    8.0765   -6.9845   31.3676 C   0  0  0  0  0  0  0  0  0  0  0  0
    7.5140   -6.1224   30.5048 C   0  0  0  0  0  0  0  0  0  0  0  0
    7.4349   -6.3920   29.0700 C   0  0  0  0  0  0  0  0  0  0  0  0
    6.7154   -5.4896   28.1456 C   0  0  0  0  0  0  0  0  0  0  0  0
    6.0376   -4.4391   28.6750 N   0  0  0  0  0  0  0  0  0  0  0  0
    5.3099   -3.6923   27.8107 C   0  0  0  0  0  0  0  0  0  0  0  0
    5.2188   -3.9915   26.4732 C   0  0  0  0  0  0  0  0  0  0  0  0
    5.8524   -5.0586   25.9542 N   0  0  0  0  0  0  0  0  0  0  0  0
    6.6375   -5.7920   26.8012 C   0  0  0  0  0  0  0  0  0  0  0  0
    7.3822   -6.8868   26.3487 N   0  0  0  0  0  0  0  0  0  0  0  0
    7.1157   -7.3585   25.0439 C   0  0  0  0  0  0  0  0  0  0  0  0
    6.1356   -8.4840   25.1966 C   0  0  0  0  0  0  0  0  0  0  0  0
    6.6247   -9.8086   25.1959 C   0  0  0  0  0  0  0  0  0  0  0  0
    5.7846  -10.8139   24.7706 C   0  0  0  0  0  0  0  0  0  0  0  0
    4.4824  -10.4803   24.3831 C   0  0  0  0  0  0  0  0  0  0  0  0
    3.9457   -9.2165   24.6337 C   0  0  0  0  0  0  0  0  0  0  0  0
    4.7683   -8.1988   25.0694 C   0  0  0  0  0  0  0  0  0  0  0  0
    8.1296   -7.7230   27.1526 C   0  0  0  0  0  0  0  0  0  0  0  0
    8.8690   -8.5995   26.6984 O   0  0  0  0  0  0  0  0  0  0  0  0
    8.0055   -7.5373   28.6142 C   0  0  0  0  0  0  0  0  0  0  0  0
    8.5038   -8.4810   29.5360 N   0  0  0  0  0  0  0  0  0  0  0  0
    9.0413  -10.0582   27.4168 H   0  0  0  0  0  0  0  0  0  0  0  0
    9.4651  -11.3959   28.3642 H   0  0  0  0  0  0  0  0  0  0  0  0
    8.1390   -6.7689   32.4287 H   0  0  0  0  0  0  0  0  0  0  0  0
    7.1177   -5.1775   30.8703 H   0  0  0  0  0  0  0  0  0  0  0  0
    4.8005   -2.8343   28.2356 H   0  0  0  0  0  0  0  0  0  0  0  0
    4.6434   -3.3857   25.7843 H   0  0  0  0  0  0  0  0  0  0  0  0
    8.0476   -7.7278   24.6128 H   0  0  0  0  0  0  0  0  0  0  0  0
    6.7556   -6.5875   24.3540 H   0  0  0  0  0  0  0  0  0  0  0  0
    7.6797  -10.0337   25.2987 H   0  0  0  0  0  0  0  0  0  0  0  0
    6.1834  -11.7972   24.6039 H   0  0  0  0  0  0  0  0  0  0  0  0
    3.8467  -11.2127   23.8939 H   0  0  0  0  0  0  0  0  0  0  0  0
    2.9362   -9.0297   24.3219 H   0  0  0  0  0  0  0  0  0  0  0  0
    4.4120   -7.1747   25.0680 H   0  0  0  0  0  0  0  0  0  0  0  0
  1  2  1  0
  2  3  2  0
  3  4  1  0
  4  5  2  0
  5  6  1  0
  6  7  2  0
  7  8  1  0
  8  9  1  0
  9 10  2  0
 10 11  1  0
 11 12  2  0
 12 13  1  0
 13 14  2  0
 14 15  1  0
 15 16  1  0
 16 17  1  0
 17 18  2  0
 18 19  1  0
 19 20  2  0
 20 21  1  0
 21 22  2  0
 15 23  1  0
 23 24  2  0
 23 25  1  0
 25 26  1  0
 26  2  1  0
 26  5  1  0
 25  8  2  0
 14  9  1  0
 22 17  1  0
  1 27  1  0
  1 28  1  0
  6 29  1  0
  7 30  1  0
 11 31  1  0
 12 32  1  0
 16 33  1  0
 16 34  1  0
 18 35  1  0
 19 36  1  0
 20 37  1  0
 21 38  1  0
 22 39  1  0
M  END
>  <Energy>  (889) 
83.315138878922781

>  <compound_id>  (889) 
3878

>  <target_id>  (889) 
1

>  <reference_id>  (889) 
155

>  <inspiration_ids>  (889) 
[155, 175]

>  <energy_score>  (889) 
-59.583925857674956

>  <distance_score>  (889) 
2.0394232664913066

>  <path>  (889) 
/opt/xchem-fragalysis-2/maxwin/BulkDock/SCRATCH/505735/C3878-P155/C3878-P155.minimised.mol

>  <scratch_subdir>  (889) 
/opt/xchem-fragalysis-2/maxwin/BulkDock/SCRATCH/505735/C3878-P155

>  <fragmenstein_runtime>  (889) 
2.0201492309570312

>  <fragmenstein_outcome>  (889) 
too moved

>  <fragmenstein_mode>  (889) 
expansion

>  <fragmenstein_error>  (889) 


$$$$
C3878-P175
     RDKit          3D

 39 43  0  0  0  0  0  0  0  0999 V2000
    8.3677  -10.6876   28.1419 N   0  0  0  0  0  0  0  0  0  0  0  0
    8.6393   -9.9656   29.2490 C   0  0  0  0  0  0  0  0  0  0  0  0
    9.0940  -10.4432   30.3849 N   0  0  0  0  0  0  0  0  0  0  0  0
    9.0323   -9.4474   31.3262 N   0  0  0  0  0  0  0  0  0  0  0  0
    8.5330   -8.3810   30.7443 C   0  0  0  0  0  0  0  0  0  0  0  0
    8.1408   -7.1170   31.2509 C   0  0  0  0  0  0  0  0  0  0  0  0
    7.6040   -6.2041   30.4234 C   0  0  0  0  0  0  0  0  0  0  0  0
    7.4784   -6.4304   28.9835 C   0  0  0  0  0  0  0  0  0  0  0  0
    6.8175   -5.4561   28.0914 C   0  0  0  0  0  0  0  0  0  0  0  0
    6.1759   -4.4035   28.6593 N   0  0  0  0  0  0  0  0  0  0  0  0
    5.4956   -3.5843   27.8210 C   0  0  0  0  0  0  0  0  0  0  0  0
    5.4216   -3.8082   26.4675 C   0  0  0  0  0  0  0  0  0  0  0  0
    6.0205   -4.8742   25.9078 N   0  0  0  0  0  0  0  0  0  0  0  0
    6.7456   -5.6917   26.7338 C   0  0  0  0  0  0  0  0  0  0  0  0
    7.4015   -6.8270   26.2363 N   0  0  0  0  0  0  0  0  0  0  0  0
    7.0267   -7.2375   24.9315 C   0  0  0  0  0  0  0  0  0  0  0  0
    5.8500   -8.1526   25.0991 C   0  0  0  0  0  0  0  0  0  0  0  0
    6.1012   -9.5234   25.2180 C   0  0  0  0  0  0  0  0  0  0  0  0
    5.1134  -10.3948   24.8180 C   0  0  0  0  0  0  0  0  0  0  0  0
    3.8521   -9.9207   24.4592 C   0  0  0  0  0  0  0  0  0  0  0  0
    3.5680   -8.5733   24.5593 C   0  0  0  0  0  0  0  0  0  0  0  0
    4.5588   -7.6733   24.8956 C   0  0  0  0  0  0  0  0  0  0  0  0
    8.0480   -7.7672   27.0185 C   0  0  0  0  0  0  0  0  0  0  0  0
    8.6783   -8.7162   26.5447 O   0  0  0  0  0  0  0  0  0  0  0  0
    7.9505   -7.6030   28.4888 C   0  0  0  0  0  0  0  0  0  0  0  0
    8.3788   -8.6045   29.3829 N   0  0  0  0  0  0  0  0  0  0  0  0
    8.5825  -10.2363   27.2468 H   0  0  0  0  0  0  0  0  0  0  0  0
    8.7408  -11.6317   28.1686 H   0  0  0  0  0  0  0  0  0  0  0  0
    8.2499   -6.9280   32.3135 H   0  0  0  0  0  0  0  0  0  0  0  0
    7.2827   -5.2426   30.8186 H   0  0  0  0  0  0  0  0  0  0  0  0
    5.0137   -2.7282   28.2807 H   0  0  0  0  0  0  0  0  0  0  0  0
    4.8887   -3.1433   25.7987 H   0  0  0  0  0  0  0  0  0  0  0  0
    7.8580   -7.7817   24.4761 H   0  0  0  0  0  0  0  0  0  0  0  0
    6.8162   -6.4025   24.2532 H   0  0  0  0  0  0  0  0  0  0  0  0
    7.0999   -9.9231   25.3489 H   0  0  0  0  0  0  0  0  0  0  0  0
    5.3600  -11.4422   24.7343 H   0  0  0  0  0  0  0  0  0  0  0  0
    3.1022  -10.6133   24.0857 H   0  0  0  0  0  0  0  0  0  0  0  0
    2.6167   -8.2292   24.2031 H   0  0  0  0  0  0  0  0  0  0  0  0
    4.3790   -6.6085   24.8111 H   0  0  0  0  0  0  0  0  0  0  0  0
  1  2  1  0
  2  3  2  0
  3  4  1  0
  4  5  2  0
  5  6  1  0
  6  7  2  0
  7  8  1  0
  8  9  1  0
  9 10  2  0
 10 11  1  0
 11 12  2  0
 12 13  1  0
 13 14  2  0
 14 15  1  0
 15 16  1  0
 16 17  1  0
 17 18  2  0
 18 19  1  0
 19 20  2  0
 20 21  1  0
 21 22  2  0
 15 23  1  0
 23 24  2  0
 23 25  1  0
 25 26  1  0
 26  2  1  0
 26  5  1  0
 25  8  2  0
 14  9  1  0
 22 17  1  0
  1 27  1  0
  1 28  1  0
  6 29  1  0
  7 30  1  0
 11 31  1  0
 12 32  1  0
 16 33  1  0
 16 34  1  0
 18 35  1  0
 19 36  1  0
 20 37  1  0
 21 38  1  0
 22 39  1  0
M  END
>  <Energy>  (890) 
82.416466382080387

>  <compound_id>  (890) 
3878

>  <target_id>  (890) 
1

>  <reference_id>  (890) 
175

>  <inspiration_ids>  (890) 
[155, 175]

>  <energy_score>  (890) 
-60.48259835451711

>  <distance_score>  (890) 
1.9933099473344988

>  <path>  (890) 
/opt/xchem-fragalysis-2/maxwin/BulkDock/SCRATCH/505735/C3878-P175/C3878-P175.minimised.mol

>  <scratch_subdir>  (890) 
/opt/xchem-fragalysis-2/maxwin/BulkDock/SCRATCH/505735/C3878-P175

>  <fragmenstein_runtime>  (890) 
1.5773594379425049

>  <fragmenstein_outcome>  (890) 
too moved

>  <fragmenstein_mode>  (890) 
expansion

>  <fragmenstein_error>  (890) 


$$$$
C3878-P155
     RDKit          3D

 39 43  0  0  0  0  0  0  0  0999 V2000
    7.9803  -10.5644   27.0175 N   0  0  0  0  0  0  0  0  0  0  0  0
    8.2166   -9.9746   28.2072 C   0  0  0  0  0  0  0  0  0  0  0  0
    8.6530  -10.5819   29.2870 N   0  0  0  0  0  0  0  0  0  0  0  0
    8.9358   -9.6383   30.2375 N   0  0  0  0  0  0  0  0  0  0  0  0
    8.6672   -8.4649   29.7199 C   0  0  0  0  0  0  0  0  0  0  0  0
    8.8603   -7.1600   30.2249 C   0  0  0  0  0  0  0  0  0  0  0  0
    8.5250   -6.1069   29.4665 C   0  0  0  0  0  0  0  0  0  0  0  0
    7.8728   -6.2563   28.1651 C   0  0  0  0  0  0  0  0  0  0  0  0
    7.4241   -5.0851   27.3943 C   0  0  0  0  0  0  0  0  0  0  0  0
    7.7486   -3.8603   27.8686 N   0  0  0  0  0  0  0  0  0  0  0  0
    7.1182   -2.8155   27.2854 C   0  0  0  0  0  0  0  0  0  0  0  0
    6.2079   -2.9651   26.2670 C   0  0  0  0  0  0  0  0  0  0  0  0
    5.9025   -4.1764   25.7722 N   0  0  0  0  0  0  0  0  0  0  0  0
    6.5100   -5.2422   26.3698 C   0  0  0  0  0  0  0  0  0  0  0  0
    5.9901   -6.5300   26.1735 N   0  0  0  0  0  0  0  0  0  0  0  0
    4.5343   -6.5464   26.0374 C   0  0  0  0  0  0  0  0  0  0  0  0
    3.8000   -5.5641   26.9954 C   0  0  0  0  0  0  0  0  0  0  0  0
    3.7406   -5.7843   28.3764 C   0  0  0  0  0  0  0  0  0  0  0  0
    2.9969   -4.9357   29.2131 C   0  0  0  0  0  0  0  0  0  0  0  0
    2.3651   -3.8102   28.6998 C   0  0  0  0  0  0  0  0  0  0  0  0
    2.5094   -3.5076   27.3577 C   0  0  0  0  0  0  0  0  0  0  0  0
    3.1950   -4.3859   26.5119 C   0  0  0  0  0  0  0  0  0  0  0  0
    6.7003   -7.6623   26.5386 C   0  0  0  0  0  0  0  0  0  0  0  0
    6.4968   -8.7724   26.0560 O   0  0  0  0  0  0  0  0  0  0  0  0
    7.6252   -7.5100   27.7079 C   0  0  0  0  0  0  0  0  0  0  0  0
    8.1112   -8.6080   28.4508 N   0  0  0  0  0  0  0  0  0  0  0  0
    7.3275  -10.1159   26.3652 H   0  0  0  0  0  0  0  0  0  0  0  0
    7.8576  -11.5709   27.0478 H   0  0  0  0  0  0  0  0  0  0  0  0
    9.3247   -7.0394   31.1976 H   0  0  0  0  0  0  0  0  0  0  0  0
    8.7062   -5.0995   29.8358 H   0  0  0  0  0  0  0  0  0  0  0  0
    7.3725   -1.8346   27.6713 H   0  0  0  0  0  0  0  0  0  0  0  0
    5.7005   -2.1169   25.8234 H   0  0  0  0  0  0  0  0  0  0  0  0
    4.1597   -7.5575   26.2359 H   0  0  0  0  0  0  0  0  0  0  0  0
    4.2983   -6.3236   25.0014 H   0  0  0  0  0  0  0  0  0  0  0  0
    4.2757   -6.6232   28.8015 H   0  0  0  0  0  0  0  0  0  0  0  0
    2.9292   -5.1320   30.2787 H   0  0  0  0  0  0  0  0  0  0  0  0
    1.8127   -3.1407   29.3536 H   0  0  0  0  0  0  0  0  0  0  0  0
    2.0978   -2.5765   26.9830 H   0  0  0  0  0  0  0  0  0  0  0  0
    3.3041   -4.1184   25.4665 H   0  0  0  0  0  0  0  0  0  0  0  0
  1  2  1  0
  2  3  2  0
  3  4  1  0
  4  5  2  0
  5  6  1  0
  6  7  2  0
  7  8  1  0
  8  9  1  0
  9 10  2  0
 10 11  1  0
 11 12  2  0
 12 13  1  0
 13 14  2  0
 14 15  1  0
 15 16  1  0
 16 17  1  0
 17 18  2  0
 18 19  1  0
 19 20  2  0
 20 21  1  0
 21 22  2  0
 15 23  1  0
 23 24  2  0
 23 25  1  0
 25 26  1  0
 26  2  1  0
 26  5  1  0
 25  8  2  0
 14  9  1  0
 22 17  1  0
  1 27  1  0
  1 28  1  0
  6 29  1  0
  7 30  1  0
 11 31  1  0
 12 32  1  0
 16 33  1  0
 16 34  1  0
 18 35  1  0
 19 36  1  0
 20 37  1  0
 21 38  1  0
 22 39  1  0
M  END
>  <Energy>  (891) 
93.160303785695049

>  <compound_id>  (891) 
3878

>  <target_id>  (891) 
1

>  <reference_id>  (891) 
155

>  <inspiration_ids>  (891) 
[155, 177]

>  <energy_score>  (891) 
-45.85325514341599

>  <distance_score>  (891) 
2.246399994185164

>  <path>  (891) 
/opt/xchem-fragalysis-2/maxwin/BulkDock/SCRATCH/505735/C3878-P155/C3878-P155.minimised.mol

>  <scratch_subdir>  (891) 
/opt/xchem-fragalysis-2/maxwin/BulkDock/SCRATCH/505735/C3878-P155

>  <fragmenstein_runtime>  (891) 
4.157848596572876

>  <fragmenstein_outcome>  (891) 
too moved

>  <fragmenstein_mode>  (891) 
expansion

>  <fragmenstein_error>  (891) 


$$$$
C3878-P177
     RDKit          3D

 39 43  0  0  0  0  0  0  0  0999 V2000
    8.2298   -9.9894   26.3419 N   0  0  0  0  0  0  0  0  0  0  0  0
    8.7656   -9.4963   27.4792 C   0  0  0  0  0  0  0  0  0  0  0  0
    9.7366  -10.0425   28.1815 N   0  0  0  0  0  0  0  0  0  0  0  0
   10.0611   -9.2107   29.2182 N   0  0  0  0  0  0  0  0  0  0  0  0
    9.3337   -8.1270   29.0891 C   0  0  0  0  0  0  0  0  0  0  0  0
    9.3745   -6.8950   29.7790 C   0  0  0  0  0  0  0  0  0  0  0  0
    8.6577   -5.8670   29.3062 C   0  0  0  0  0  0  0  0  0  0  0  0
    7.7524   -6.0175   28.1719 C   0  0  0  0  0  0  0  0  0  0  0  0
    7.1358   -4.8698   27.5126 C   0  0  0  0  0  0  0  0  0  0  0  0
    7.5381   -3.6313   27.8802 N   0  0  0  0  0  0  0  0  0  0  0  0
    6.9227   -2.6052   27.2515 C   0  0  0  0  0  0  0  0  0  0  0  0
    5.9694   -2.7935   26.2820 C   0  0  0  0  0  0  0  0  0  0  0  0
    5.5969   -4.0256   25.9081 N   0  0  0  0  0  0  0  0  0  0  0  0
    6.1499   -5.0657   26.5728 C   0  0  0  0  0  0  0  0  0  0  0  0
    5.5878   -6.3431   26.4854 N   0  0  0  0  0  0  0  0  0  0  0  0
    4.1767   -6.3753   26.1059 C   0  0  0  0  0  0  0  0  0  0  0  0
    3.2178   -5.2947   26.7091 C   0  0  0  0  0  0  0  0  0  0  0  0
    2.5538   -5.5415   27.9068 C   0  0  0  0  0  0  0  0  0  0  0  0
    1.5769   -4.6921   28.4424 C   0  0  0  0  0  0  0  0  0  0  0  0
    1.2415   -3.5268   27.7739 C   0  0  0  0  0  0  0  0  0  0  0  0
    1.9061   -3.2126   26.5983 C   0  0  0  0  0  0  0  0  0  0  0  0
    2.8747   -4.0842   26.0805 C   0  0  0  0  0  0  0  0  0  0  0  0
    6.3377   -7.4784   26.7893 C   0  0  0  0  0  0  0  0  0  0  0  0
    6.0117   -8.6369   26.5304 O   0  0  0  0  0  0  0  0  0  0  0  0
    7.5478   -7.2515   27.6518 C   0  0  0  0  0  0  0  0  0  0  0  0
    8.4274   -8.2719   28.0408 N   0  0  0  0  0  0  0  0  0  0  0  0
    7.2653   -9.7155   26.1068 H   0  0  0  0  0  0  0  0  0  0  0  0
    8.3645  -10.9841   26.1916 H   0  0  0  0  0  0  0  0  0  0  0  0
   10.0486   -6.7823   30.6205 H   0  0  0  0  0  0  0  0  0  0  0  0
    8.7246   -4.8906   29.7811 H   0  0  0  0  0  0  0  0  0  0  0  0
    7.2343   -1.6101   27.5477 H   0  0  0  0  0  0  0  0  0  0  0  0
    5.4776   -1.9703   25.7768 H   0  0  0  0  0  0  0  0  0  0  0  0
    3.7912   -7.3608   26.3728 H   0  0  0  0  0  0  0  0  0  0  0  0
    4.1611   -6.3641   25.0291 H   0  0  0  0  0  0  0  0  0  0  0  0
    2.7541   -6.4777   28.3802 H   0  0  0  0  0  0  0  0  0  0  0  0
    1.0658   -4.9582   29.3622 H   0  0  0  0  0  0  0  0  0  0  0  0
    0.4761   -2.8629   28.1649 H   0  0  0  0  0  0  0  0  0  0  0  0
    1.6744   -2.2969   26.0632 H   0  0  0  0  0  0  0  0  0  0  0  0
    3.3499   -3.7855   25.1499 H   0  0  0  0  0  0  0  0  0  0  0  0
  1  2  1  0
  2  3  2  0
  3  4  1  0
  4  5  2  0
  5  6  1  0
  6  7  2  0
  7  8  1  0
  8  9  1  0
  9 10  2  0
 10 11  1  0
 11 12  2  0
 12 13  1  0
 13 14  2  0
 14 15  1  0
 15 16  1  0
 16 17  1  0
 17 18  2  0
 18 19  1  0
 19 20  2  0
 20 21  1  0
 21 22  2  0
 15 23  1  0
 23 24  2  0
 23 25  1  0
 25 26  1  0
 26  2  1  0
 26  5  1  0
 25  8  2  0
 14  9  1  0
 22 17  1  0
  1 27  1  0
  1 28  1  0
  6 29  1  0
  7 30  1  0
 11 31  1  0
 12 32  1  0
 16 33  1  0
 16 34  1  0
 18 35  1  0
 19 36  1  0
 20 37  1  0
 21 38  1  0
 22 39  1  0
M  END
>  <Energy>  (892) 
92.4019315467702

>  <compound_id>  (892) 
3878

>  <target_id>  (892) 
1

>  <reference_id>  (892) 
177

>  <inspiration_ids>  (892) 
[155, 177]

>  <energy_score>  (892) 
-46.61162738234077

>  <distance_score>  (892) 
2.1737801075729766

>  <path>  (892) 
/opt/xchem-fragalysis-2/maxwin/BulkDock/SCRATCH/505735/C3878-P177/C3878-P177.minimised.mol

>  <scratch_subdir>  (892) 
/opt/xchem-fragalysis-2/maxwin/BulkDock/SCRATCH/505735/C3878-P177

>  <fragmenstein_runtime>  (892) 
3.4483373165130615

>  <fragmenstein_outcome>  (892) 
too moved

>  <fragmenstein_mode>  (892) 
expansion

>  <fragmenstein_error>  (892) 


$$$$
C4429-P156
     RDKit          3D

 38 42  0  0  0  0  0  0  0  0999 V2000
   -1.2678   -5.9388   34.0315 N   0  0  0  0  0  0  0  0  0  0  0  0
   -1.1477   -6.2815   32.7306 C   0  0  0  0  0  0  0  0  0  0  0  0
   -1.3597   -7.4793   32.2243 N   0  0  0  0  0  0  0  0  0  0  0  0
   -0.6863   -7.5526   31.0331 N   0  0  0  0  0  0  0  0  0  0  0  0
   -0.0434   -6.4137   30.8967 C   0  0  0  0  0  0  0  0  0  0  0  0
    1.0850   -6.0291   30.1490 C   0  0  0  0  0  0  0  0  0  0  0  0
    1.7028   -4.8765   30.4506 C   0  0  0  0  0  0  0  0  0  0  0  0
    1.1440   -3.8989   31.4014 C   0  0  0  0  0  0  0  0  0  0  0  0
    2.0074   -2.8445   31.9867 C   0  0  0  0  0  0  0  0  0  0  0  0
    1.8776   -2.4161   33.3119 C   0  0  0  0  0  0  0  0  0  0  0  0
    2.7658   -1.5958   33.9239 N   0  0  0  0  0  0  0  0  0  0  0  0
    3.8236   -1.2347   33.1700 C   0  0  0  0  0  0  0  0  0  0  0  0
    3.9846   -1.6758   31.8690 C   0  0  0  0  0  0  0  0  0  0  0  0
    3.0926   -2.4900   31.2562 N   0  0  0  0  0  0  0  0  0  0  0  0
   -0.1530   -4.0939   31.7547 C   0  0  0  0  0  0  0  0  0  0  0  0
   -1.2764   -2.7975   32.1669 S   0  0  0  0  0  0  0  0  0  0  0  0
   -1.2822   -1.6847   30.7611 C   0  0  0  0  0  0  0  0  0  0  0  0
   -2.2120   -0.7545   30.6125 N   0  0  0  0  0  0  0  0  0  0  0  0
   -1.8585    0.0062   29.5271 N   0  0  0  0  0  0  0  0  0  0  0  0
   -0.7060   -0.4663   29.1113 C   0  0  0  0  0  0  0  0  0  0  0  0
    0.1650    0.2733   28.2867 C   0  0  0  0  0  0  0  0  0  0  0  0
    1.5036    0.0610   28.0521 C   0  0  0  0  0  0  0  0  0  0  0  0
    2.0009    1.2368   27.4483 C   0  0  0  0  0  0  0  0  0  0  0  0
    0.9377    2.0941   27.2624 C   0  0  0  0  0  0  0  0  0  0  0  0
   -0.1900    1.4774   27.7359 N   0  0  0  0  0  0  0  0  0  0  0  0
   -0.3062   -1.5772   29.8113 O   0  0  0  0  0  0  0  0  0  0  0  0
   -0.5737   -5.4582   31.7550 N   0  0  0  0  0  0  0  0  0  0  0  0
   -1.6290   -6.6805   34.6242 H   0  0  0  0  0  0  0  0  0  0  0  0
   -1.7639   -5.0644   34.2404 H   0  0  0  0  0  0  0  0  0  0  0  0
    1.4984   -6.7058   29.4175 H   0  0  0  0  0  0  0  0  0  0  0  0
    2.6136   -4.5967   29.9242 H   0  0  0  0  0  0  0  0  0  0  0  0
    1.0757   -2.7546   33.9589 H   0  0  0  0  0  0  0  0  0  0  0  0
    4.5457   -0.5773   33.6413 H   0  0  0  0  0  0  0  0  0  0  0  0
    4.8428   -1.3793   31.2760 H   0  0  0  0  0  0  0  0  0  0  0  0
    2.0785   -0.7984   28.3738 H   0  0  0  0  0  0  0  0  0  0  0  0
    3.0286    1.4457   27.1809 H   0  0  0  0  0  0  0  0  0  0  0  0
    0.8831    3.0911   26.8442 H   0  0  0  0  0  0  0  0  0  0  0  0
   -1.1184    1.8856   27.7809 H   0  0  0  0  0  0  0  0  0  0  0  0
  1  2  1  0
  2  3  2  0
  3  4  1  0
  4  5  2  0
  5  6  1  0
  6  7  2  0
  7  8  1  0
  8  9  1  0
  9 10  2  0
 10 11  1  0
 11 12  2  0
 12 13  1  0
 13 14  2  0
  8 15  2  0
 15 16  1  0
 16 17  1  0
 17 18  2  0
 18 19  1  0
 19 20  2  0
 20 21  1  0
 21 22  2  0
 22 23  1  0
 23 24  2  0
 24 25  1  0
 20 26  1  0
 15 27  1  0
 27  2  1  0
 27  5  1  0
 14  9  1  0
 26 17  1  0
 25 21  1  0
  1 28  1  0
  1 29  1  0
  6 30  1  0
  7 31  1  0
 10 32  1  0
 12 33  1  0
 13 34  1  0
 22 35  1  0
 23 36  1  0
 24 37  1  0
 25 38  1  0
M  END
>  <Energy>  (893) 
142.62052040348598

>  <compound_id>  (893) 
4429

>  <target_id>  (893) 
1

>  <reference_id>  (893) 
156

>  <inspiration_ids>  (893) 
[156, 13]

>  <energy_score>  (893) 
-21.19337589320014

>  <distance_score>  (893) 
2.269233905385281

>  <path>  (893) 
/opt/xchem-fragalysis-2/maxwin/BulkDock/SCRATCH/505735/C4429-P156/C4429-P156.minimised.mol

>  <scratch_subdir>  (893) 
/opt/xchem-fragalysis-2/maxwin/BulkDock/SCRATCH/505735/C4429-P156

>  <fragmenstein_runtime>  (893) 
4.285720348358154

>  <fragmenstein_outcome>  (893) 
too moved

>  <fragmenstein_mode>  (893) 
expansion

>  <fragmenstein_error>  (893) 


$$$$
C4429-P13
     RDKit          3D

 38 42  0  0  0  0  0  0  0  0999 V2000
   -1.3284   -5.9433   33.9847 N   0  0  0  0  0  0  0  0  0  0  0  0
   -1.1829   -6.3016   32.6900 C   0  0  0  0  0  0  0  0  0  0  0  0
   -1.4017   -7.4995   32.1886 N   0  0  0  0  0  0  0  0  0  0  0  0
   -0.6727   -7.6037   31.0330 N   0  0  0  0  0  0  0  0  0  0  0  0
    0.0011   -6.4812   30.9161 C   0  0  0  0  0  0  0  0  0  0  0  0
    1.1831   -6.1335   30.2350 C   0  0  0  0  0  0  0  0  0  0  0  0
    1.7779   -4.9647   30.5195 C   0  0  0  0  0  0  0  0  0  0  0  0
    1.1606   -3.9469   31.3883 C   0  0  0  0  0  0  0  0  0  0  0  0
    1.9901   -2.8580   31.9560 C   0  0  0  0  0  0  0  0  0  0  0  0
    1.8746   -2.4590   33.2920 C   0  0  0  0  0  0  0  0  0  0  0  0
    2.7446   -1.6149   33.8969 N   0  0  0  0  0  0  0  0  0  0  0  0
    3.7694   -1.2011   33.1249 C   0  0  0  0  0  0  0  0  0  0  0  0
    3.9130   -1.6094   31.8103 C   0  0  0  0  0  0  0  0  0  0  0  0
    3.0358   -2.4422   31.1996 N   0  0  0  0  0  0  0  0  0  0  0  0
   -0.1458   -4.1398   31.7095 C   0  0  0  0  0  0  0  0  0  0  0  0
   -1.2754   -2.8402   32.1002 S   0  0  0  0  0  0  0  0  0  0  0  0
   -1.3369   -1.8096   30.6361 C   0  0  0  0  0  0  0  0  0  0  0  0
   -2.3594   -1.0119   30.3780 N   0  0  0  0  0  0  0  0  0  0  0  0
   -2.0282   -0.2688   29.2703 N   0  0  0  0  0  0  0  0  0  0  0  0
   -0.7930   -0.6020   28.9677 C   0  0  0  0  0  0  0  0  0  0  0  0
    0.0558    0.1845   28.1620 C   0  0  0  0  0  0  0  0  0  0  0  0
   -0.2095    1.3717   27.5254 C   0  0  0  0  0  0  0  0  0  0  0  0
    1.0350    1.9146   27.1338 C   0  0  0  0  0  0  0  0  0  0  0  0
    2.0122    1.0072   27.4714 C   0  0  0  0  0  0  0  0  0  0  0  0
    1.3985   -0.0696   28.0522 N   0  0  0  0  0  0  0  0  0  0  0  0
   -0.3096   -1.6161   29.7570 O   0  0  0  0  0  0  0  0  0  0  0  0
   -0.5650   -5.5027   31.7232 N   0  0  0  0  0  0  0  0  0  0  0  0
   -1.7005   -6.6872   34.5688 H   0  0  0  0  0  0  0  0  0  0  0  0
   -1.8133   -5.0607   34.1787 H   0  0  0  0  0  0  0  0  0  0  0  0
    1.6413   -6.8473   29.5648 H   0  0  0  0  0  0  0  0  0  0  0  0
    2.7240   -4.7116   30.0449 H   0  0  0  0  0  0  0  0  0  0  0  0
    1.1014   -2.8431   33.9490 H   0  0  0  0  0  0  0  0  0  0  0  0
    4.4792   -0.5275   33.5920 H   0  0  0  0  0  0  0  0  0  0  0  0
    4.7462   -1.2694   31.2049 H   0  0  0  0  0  0  0  0  0  0  0  0
   -1.1816    1.8470   27.4441 H   0  0  0  0  0  0  0  0  0  0  0  0
    1.1951    2.8752   26.6603 H   0  0  0  0  0  0  0  0  0  0  0  0
    3.0865    1.0364   27.3517 H   0  0  0  0  0  0  0  0  0  0  0  0
    1.8659   -0.8787   28.4420 H   0  0  0  0  0  0  0  0  0  0  0  0
  1  2  1  0
  2  3  2  0
  3  4  1  0
  4  5  2  0
  5  6  1  0
  6  7  2  0
  7  8  1  0
  8  9  1  0
  9 10  2  0
 10 11  1  0
 11 12  2  0
 12 13  1  0
 13 14  2  0
  8 15  2  0
 15 16  1  0
 16 17  1  0
 17 18  2  0
 18 19  1  0
 19 20  2  0
 20 21  1  0
 21 22  2  0
 22 23  1  0
 23 24  2  0
 24 25  1  0
 20 26  1  0
 15 27  1  0
 27  2  1  0
 27  5  1  0
 14  9  1  0
 26 17  1  0
 25 21  1  0
  1 28  1  0
  1 29  1  0
  6 30  1  0
  7 31  1  0
 10 32  1  0
 12 33  1  0
 13 34  1  0
 22 35  1  0
 23 36  1  0
 24 37  1  0
 25 38  1  0
M  END
>  <Energy>  (894) 
141.55799647536398

>  <compound_id>  (894) 
4429

>  <target_id>  (894) 
1

>  <reference_id>  (894) 
13

>  <inspiration_ids>  (894) 
[156, 13]

>  <energy_score>  (894) 
-22.255899821323396

>  <distance_score>  (894) 
2.412207448299185

>  <path>  (894) 
/opt/xchem-fragalysis-2/maxwin/BulkDock/SCRATCH/505735/C4429-P13/C4429-P13.minimised.mol

>  <scratch_subdir>  (894) 
/opt/xchem-fragalysis-2/maxwin/BulkDock/SCRATCH/505735/C4429-P13

>  <fragmenstein_runtime>  (894) 
3.4153921604156494

>  <fragmenstein_outcome>  (894) 
too moved

>  <fragmenstein_mode>  (894) 
expansion

>  <fragmenstein_error>  (894) 


$$$$
C4431-P156
     RDKit          3D

 51 55  0  0  0  0  0  0  0  0999 V2000
   -0.9072   -6.7972   34.6741 N   0  0  0  0  0  0  0  0  0  0  0  0
   -0.8299   -6.5833   33.3529 C   0  0  0  0  0  0  0  0  0  0  0  0
   -1.1274   -7.4213   32.3710 N   0  0  0  0  0  0  0  0  0  0  0  0
   -0.8468   -6.8081   31.1462 N   0  0  0  0  0  0  0  0  0  0  0  0
   -0.4132   -5.6167   31.4510 C   0  0  0  0  0  0  0  0  0  0  0  0
   -0.4375   -5.4454   32.7919 N   0  0  0  0  0  0  0  0  0  0  0  0
    0.0319   -4.1589   32.8581 C   0  0  0  0  0  0  0  0  0  0  0  0
   -1.2931   -3.1573   31.7802 C   0  0  0  0  0  0  0  0  0  0  0  0
   -0.7336   -2.2044   30.2852 C   0  0  0  0  0  0  0  0  0  0  0  0
    0.9618   -2.3867   29.6231 C   0  0  0  0  0  0  0  0  0  0  0  0
    2.4154   -3.2820   30.2774 C   0  0  0  0  0  0  0  0  0  0  0  0
    3.2547   -4.1381   29.3423 C   0  0  0  0  0  0  0  0  0  0  0  0
    4.5900   -4.3997   29.6762 C   0  0  0  0  0  0  0  0  0  0  0  0
    5.3953   -5.1782   28.8455 C   0  0  0  0  0  0  0  0  0  0  0  0
    4.8846   -5.6985   27.6610 C   0  0  0  0  0  0  0  0  0  0  0  0
    3.5652   -5.4452   27.3120 C   0  0  0  0  0  0  0  0  0  0  0  0
    2.7585   -4.6755   28.1530 C   0  0  0  0  0  0  0  0  0  0  0  0
    2.1594   -4.5986   32.0176 S   0  0  0  0  0  0  0  0  0  0  0  0
    3.2012   -4.2657   32.9710 O   0  0  0  0  0  0  0  0  0  0  0  0
    2.2148   -5.9770   31.5645 O   0  0  0  0  0  0  0  0  0  0  0  0
    0.4276   -2.9610   33.5136 C   0  0  0  0  0  0  0  0  0  0  0  0
    1.5271   -2.7770   34.4827 C   0  0  0  0  0  0  0  0  0  0  0  0
    1.6324   -3.5313   35.6426 C   0  0  0  0  0  0  0  0  0  0  0  0
    2.6302   -3.3571   36.5348 N   0  0  0  0  0  0  0  0  0  0  0  0
    3.5267   -2.3930   36.2257 C   0  0  0  0  0  0  0  0  0  0  0  0
    3.4089   -1.6106   35.0933 C   0  0  0  0  0  0  0  0  0  0  0  0
    2.3936   -1.7667   34.2146 N   0  0  0  0  0  0  0  0  0  0  0  0
    0.7470   -2.7830   31.9727 C   0  0  0  0  0  0  0  0  0  0  0  0
    0.1818   -4.3299   30.7094 C   0  0  0  0  0  0  0  0  0  0  0  0
   -0.2878   -6.3240   35.3214 H   0  0  0  0  0  0  0  0  0  0  0  0
   -1.0352   -7.7766   34.9359 H   0  0  0  0  0  0  0  0  0  0  0  0
   -1.8110   -2.4413   32.4370 H   0  0  0  0  0  0  0  0  0  0  0  0
   -2.0869   -3.8270   31.4428 H   0  0  0  0  0  0  0  0  0  0  0  0
   -1.4362   -2.4356   29.4702 H   0  0  0  0  0  0  0  0  0  0  0  0
   -0.8955   -1.1358   30.4970 H   0  0  0  0  0  0  0  0  0  0  0  0
    1.3181   -1.3508   29.5215 H   0  0  0  0  0  0  0  0  0  0  0  0
    0.8112   -2.7267   28.5923 H   0  0  0  0  0  0  0  0  0  0  0  0
    3.0898   -2.4922   30.6500 H   0  0  0  0  0  0  0  0  0  0  0  0
    5.0220   -4.0034   30.5952 H   0  0  0  0  0  0  0  0  0  0  0  0
    6.4300   -5.3703   29.1216 H   0  0  0  0  0  0  0  0  0  0  0  0
    5.5220   -6.2897   27.0081 H   0  0  0  0  0  0  0  0  0  0  0  0
    3.1736   -5.8427   26.3807 H   0  0  0  0  0  0  0  0  0  0  0  0
    1.7291   -4.5042   27.8731 H   0  0  0  0  0  0  0  0  0  0  0  0
   -0.4099   -2.3542   33.8696 H   0  0  0  0  0  0  0  0  0  0  0  0
    0.9168   -4.3014   35.9024 H   0  0  0  0  0  0  0  0  0  0  0  0
    4.3440   -2.2608   36.9254 H   0  0  0  0  0  0  0  0  0  0  0  0
    4.1278   -0.8329   34.8641 H   0  0  0  0  0  0  0  0  0  0  0  0
    1.7759   -2.4120   31.9500 H   0  0  0  0  0  0  0  0  0  0  0  0
    0.3857   -1.7529   31.8051 H   0  0  0  0  0  0  0  0  0  0  0  0
    0.9336   -4.7554   30.0457 H   0  0  0  0  0  0  0  0  0  0  0  0
   -0.5981   -4.1722   29.9495 H   0  0  0  0  0  0  0  0  0  0  0  0
  1  2  1  0
  2  3  2  0
  3  4  1  0
  4  5  2  0
  5  6  1  0
  6  7  1  0
  7  8  1  0
  8  9  1  0
  9 10  1  0
 10 11  1  0
 11 12  1  0
 12 13  2  0
 13 14  1  0
 14 15  2  0
 15 16  1  0
 16 17  2  0
 11 18  1  0
 18 19  2  0
 18 20  2  0
  7 21  1  0
 21 22  1  0
 22 23  2  0
 23 24  1  0
 24 25  2  0
 25 26  1  0
 26 27  2  0
 21 28  1  0
 28 29  1  0
  6  2  1  0
 18  7  1  0
 27 22  1  0
 29  5  1  0
 17 12  1  0
  1 30  1  0
  1 31  1  0
  8 32  1  0
  8 33  1  0
  9 34  1  0
  9 35  1  0
 10 36  1  0
 10 37  1  0
 11 38  1  0
 13 39  1  0
 14 40  1  0
 15 41  1  0
 16 42  1  0
 17 43  1  0
 21 44  1  0
 23 45  1  0
 25 46  1  0
 26 47  1  0
 28 48  1  0
 28 49  1  0
 29 50  1  0
 29 51  1  0
M  END
>  <Energy>  (895) 
717.95696165998356

>  <compound_id>  (895) 
4431

>  <target_id>  (895) 
1

>  <reference_id>  (895) 
156

>  <inspiration_ids>  (895) 
[156, 40]

>  <energy_score>  (895) 
557.1338251194715

>  <distance_score>  (895) 
2.5508357399435386

>  <path>  (895) 
/opt/xchem-fragalysis-2/maxwin/BulkDock/SCRATCH/505735/C4431-P156/C4431-P156.minimised.mol

>  <scratch_subdir>  (895) 
/opt/xchem-fragalysis-2/maxwin/BulkDock/SCRATCH/505735/C4431-P156

>  <fragmenstein_runtime>  (895) 
9.273183584213257

>  <fragmenstein_outcome>  (895) 
too moved

>  <fragmenstein_mode>  (895) 
expansion

>  <fragmenstein_error>  (895) 


$$$$
C4431-P40
     RDKit          3D

 51 55  0  0  0  0  0  0  0  0999 V2000
    0.4410   -6.9981   34.4333 N   0  0  0  0  0  0  0  0  0  0  0  0
   -0.1606   -6.6893   33.2727 C   0  0  0  0  0  0  0  0  0  0  0  0
   -1.0000   -7.4171   32.5556 N   0  0  0  0  0  0  0  0  0  0  0  0
   -1.3661   -6.6945   31.4166 N   0  0  0  0  0  0  0  0  0  0  0  0
   -0.7671   -5.5423   31.5297 C   0  0  0  0  0  0  0  0  0  0  0  0
    0.0074   -5.5442   32.6299 N   0  0  0  0  0  0  0  0  0  0  0  0
    0.6673   -4.3671   32.4162 C   0  0  0  0  0  0  0  0  0  0  0  0
   -0.7877   -3.0307   32.4341 C   0  0  0  0  0  0  0  0  0  0  0  0
   -1.0407   -1.9383   30.9475 C   0  0  0  0  0  0  0  0  0  0  0  0
   -0.0781   -2.1767   29.4103 C   0  0  0  0  0  0  0  0  0  0  0  0
    1.0423   -3.5147   28.9128 C   0  0  0  0  0  0  0  0  0  0  0  0
    2.3231   -3.2630   28.1518 C   0  0  0  0  0  0  0  0  0  0  0  0
    2.9793   -2.0339   28.1709 C   0  0  0  0  0  0  0  0  0  0  0  0
    4.1648   -1.8664   27.4561 C   0  0  0  0  0  0  0  0  0  0  0  0
    4.7022   -2.9196   26.7158 C   0  0  0  0  0  0  0  0  0  0  0  0
    4.0608   -4.1521   26.6883 C   0  0  0  0  0  0  0  0  0  0  0  0
    2.8801   -4.3234   27.4034 C   0  0  0  0  0  0  0  0  0  0  0  0
    1.7091   -4.9646   30.4075 S   0  0  0  0  0  0  0  0  0  0  0  0
    3.1490   -4.8657   30.5428 O   0  0  0  0  0  0  0  0  0  0  0  0
    1.2500   -6.2515   29.8964 O   0  0  0  0  0  0  0  0  0  0  0  0
    1.6139   -3.3602   32.7363 C   0  0  0  0  0  0  0  0  0  0  0  0
    3.0603   -3.5382   32.9367 C   0  0  0  0  0  0  0  0  0  0  0  0
    3.5702   -4.4985   33.8011 C   0  0  0  0  0  0  0  0  0  0  0  0
    4.8843   -4.5897   34.0923 N   0  0  0  0  0  0  0  0  0  0  0  0
    5.6788   -3.6875   33.4730 C   0  0  0  0  0  0  0  0  0  0  0  0
    5.1765   -2.7143   32.6297 C   0  0  0  0  0  0  0  0  0  0  0  0
    3.8552   -2.5985   32.3715 N   0  0  0  0  0  0  0  0  0  0  0  0
    1.0030   -2.9937   31.3313 C   0  0  0  0  0  0  0  0  0  0  0  0
   -0.5278   -4.2163   30.6462 C   0  0  0  0  0  0  0  0  0  0  0  0
    0.4485   -6.2923   35.1643 H   0  0  0  0  0  0  0  0  0  0  0  0
    0.0801   -7.8739   34.8229 H   0  0  0  0  0  0  0  0  0  0  0  0
   -0.6381   -2.3560   33.2913 H   0  0  0  0  0  0  0  0  0  0  0  0
   -1.7424   -3.5265   32.6624 H   0  0  0  0  0  0  0  0  0  0  0  0
   -2.1098   -1.9663   30.6882 H   0  0  0  0  0  0  0  0  0  0  0  0
   -0.8615   -0.9046   31.2816 H   0  0  0  0  0  0  0  0  0  0  0  0
    0.4851   -1.2411   29.2999 H   0  0  0  0  0  0  0  0  0  0  0  0
   -0.8336   -2.1443   28.6119 H   0  0  0  0  0  0  0  0  0  0  0  0
    0.4439   -4.1163   28.2116 H   0  0  0  0  0  0  0  0  0  0  0  0
    2.6008   -1.1917   28.7418 H   0  0  0  0  0  0  0  0  0  0  0  0
    4.6778   -0.9077   27.4778 H   0  0  0  0  0  0  0  0  0  0  0  0
    5.6306   -2.7790   26.1677 H   0  0  0  0  0  0  0  0  0  0  0  0
    4.4882   -4.9774   26.1238 H   0  0  0  0  0  0  0  0  0  0  0  0
    2.4049   -5.3027   27.3866 H   0  0  0  0  0  0  0  0  0  0  0  0
    1.2898   -2.6966   33.5437 H   0  0  0  0  0  0  0  0  0  0  0  0
    2.9407   -5.2241   34.3032 H   0  0  0  0  0  0  0  0  0  0  0  0
    6.7406   -3.7687   33.6761 H   0  0  0  0  0  0  0  0  0  0  0  0
    5.8249   -1.9964   32.1413 H   0  0  0  0  0  0  0  0  0  0  0  0
    1.8530   -2.7809   30.6646 H   0  0  0  0  0  0  0  0  0  0  0  0
    0.8369   -1.9106   31.4772 H   0  0  0  0  0  0  0  0  0  0  0  0
   -1.5471   -3.8212   30.5957 H   0  0  0  0  0  0  0  0  0  0  0  0
   -0.4987   -4.6370   29.6427 H   0  0  0  0  0  0  0  0  0  0  0  0
  1  2  1  0
  2  3  2  0
  3  4  1  0
  4  5  2  0
  5  6  1  0
  6  7  1  0
  7  8  1  0
  8  9  1  0
  9 10  1  0
 10 11  1  0
 11 12  1  0
 12 13  2  0
 13 14  1  0
 14 15  2  0
 15 16  1  0
 16 17  2  0
 11 18  1  0
 18 19  2  0
 18 20  2  0
  7 21  1  0
 21 22  1  0
 22 23  2  0
 23 24  1  0
 24 25  2  0
 25 26  1  0
 26 27  2  0
 21 28  1  0
 28 29  1  0
  6  2  1  0
 18  7  1  0
 27 22  1  0
 29  5  1  0
 17 12  1  0
  1 30  1  0
  1 31  1  0
  8 32  1  0
  8 33  1  0
  9 34  1  0
  9 35  1  0
 10 36  1  0
 10 37  1  0
 11 38  1  0
 13 39  1  0
 14 40  1  0
 15 41  1  0
 16 42  1  0
 17 43  1  0
 21 44  1  0
 23 45  1  0
 25 46  1  0
 26 47  1  0
 28 48  1  0
 28 49  1  0
 29 50  1  0
 29 51  1  0
M  END
>  <Energy>  (896) 
720.67300122521988

>  <compound_id>  (896) 
4431

>  <target_id>  (896) 
1

>  <reference_id>  (896) 
40

>  <inspiration_ids>  (896) 
[156, 40]

>  <energy_score>  (896) 
559.8498646847078

>  <distance_score>  (896) 
2.528594578979698

>  <path>  (896) 
/opt/xchem-fragalysis-2/maxwin/BulkDock/SCRATCH/505735/C4431-P40/C4431-P40.minimised.mol

>  <scratch_subdir>  (896) 
/opt/xchem-fragalysis-2/maxwin/BulkDock/SCRATCH/505735/C4431-P40

>  <fragmenstein_runtime>  (896) 
8.932637929916382

>  <fragmenstein_outcome>  (896) 
too moved

>  <fragmenstein_mode>  (896) 
expansion

>  <fragmenstein_error>  (896) 


$$$$
C4433-P156
     RDKit          3D

 63 68  0  0  0  0  0  0  0  0999 V2000
   -1.0465   -7.8316   34.5079 N   0  0  0  0  0  0  0  0  0  0  0  0
   -0.9773   -7.6144   33.1727 C   0  0  0  0  0  0  0  0  0  0  0  0
   -1.5976   -8.2940   32.2318 N   0  0  0  0  0  0  0  0  0  0  0  0
   -1.3107   -7.7234   31.0154 N   0  0  0  0  0  0  0  0  0  0  0  0
   -0.5201   -6.6963   31.2381 C   0  0  0  0  0  0  0  0  0  0  0  0
   -0.0408   -5.6582   30.3989 C   0  0  0  0  0  0  0  0  0  0  0  0
    0.6987   -4.6433   30.8991 C   0  0  0  0  0  0  0  0  0  0  0  0
    0.9083   -3.4817   30.1501 N   0  0  0  0  0  0  0  0  0  0  0  0
    0.8545   -2.1265   30.7067 C   0  0  0  0  0  0  0  0  0  0  0  0
   -0.1474   -1.2303   29.9729 C   0  0  0  0  0  0  0  0  0  0  0  0
   -0.6522   -0.0902   30.8948 C   0  0  0  0  0  0  0  0  0  0  0  0
   -1.3844    0.9087   30.1096 N   0  0  0  0  0  0  0  0  0  0  0  0
   -1.5517   -0.6215   31.9670 C   0  0  0  0  0  0  0  0  0  0  0  0
   -2.6317   -1.3654   31.5629 O   0  0  0  0  0  0  0  0  0  0  0  0
   -3.2066   -1.7948   32.7148 C   0  0  0  0  0  0  0  0  0  0  0  0
   -2.5750   -1.4511   33.8094 N   0  0  0  0  0  0  0  0  0  0  0  0
   -1.5380   -0.6512   33.3479 C   0  0  0  0  0  0  0  0  0  0  0  0
   -0.5282   -0.1219   34.2543 C   0  0  0  0  0  0  0  0  0  0  0  0
    0.1302    0.8093   34.0062 O   0  0  0  0  0  0  0  0  0  0  0  0
   -0.4847   -1.0875   35.4617 N   0  0  0  0  0  0  0  0  0  0  0  0
    0.3886   -1.1603   36.5064 C   0  0  0  0  0  0  0  0  0  0  0  0
    1.0701   -0.0818   36.9224 C   0  0  0  0  0  0  0  0  0  0  0  0
    2.0148   -0.1491   37.9095 N   0  0  0  0  0  0  0  0  0  0  0  0
    2.4204   -1.3151   38.5106 C   0  0  0  0  0  0  0  0  0  0  0  0
    3.2896   -1.3275   39.3747 O   0  0  0  0  0  0  0  0  0  0  0  0
    1.7592   -2.5600   38.0376 C   0  0  0  0  0  0  0  0  0  0  0  0
    2.2470   -3.7865   38.4923 C   0  0  0  0  0  0  0  0  0  0  0  0
    1.7005   -4.9652   38.0033 C   0  0  0  0  0  0  0  0  0  0  0  0
    0.6425   -4.9206   37.1002 C   0  0  0  0  0  0  0  0  0  0  0  0
    0.1403   -3.6959   36.6582 C   0  0  0  0  0  0  0  0  0  0  0  0
    0.7143   -2.4891   37.0964 C   0  0  0  0  0  0  0  0  0  0  0  0
    1.2219   -4.7604   32.2882 C   0  0  0  0  0  0  0  0  0  0  0  0
    2.3157   -3.9252   32.8139 C   0  0  0  0  0  0  0  0  0  0  0  0
    2.0780   -2.9434   33.7659 C   0  0  0  0  0  0  0  0  0  0  0  0
    3.0187   -2.0698   34.1889 N   0  0  0  0  0  0  0  0  0  0  0  0
    4.2305   -2.2187   33.6157 C   0  0  0  0  0  0  0  0  0  0  0  0
    4.4851   -3.2026   32.6744 C   0  0  0  0  0  0  0  0  0  0  0  0
    3.5410   -4.0809   32.2597 N   0  0  0  0  0  0  0  0  0  0  0  0
    0.6890   -5.6988   33.1037 C   0  0  0  0  0  0  0  0  0  0  0  0
   -0.2192   -6.6171   32.5854 N   0  0  0  0  0  0  0  0  0  0  0  0
   -1.3970   -8.7757   34.7369 H   0  0  0  0  0  0  0  0  0  0  0  0
   -0.2439   -7.6153   35.0855 H   0  0  0  0  0  0  0  0  0  0  0  0
   -0.4254   -5.6140   29.3891 H   0  0  0  0  0  0  0  0  0  0  0  0
    0.5166   -3.5358   29.2088 H   0  0  0  0  0  0  0  0  0  0  0  0
    0.5637   -2.1723   31.7558 H   0  0  0  0  0  0  0  0  0  0  0  0
    1.8535   -1.6794   30.6592 H   0  0  0  0  0  0  0  0  0  0  0  0
    0.3485   -0.8136   29.0864 H   0  0  0  0  0  0  0  0  0  0  0  0
   -0.9940   -1.8237   29.6018 H   0  0  0  0  0  0  0  0  0  0  0  0
    0.2096    0.4109   31.3492 H   0  0  0  0  0  0  0  0  0  0  0  0
   -2.1517    0.4298   29.6335 H   0  0  0  0  0  0  0  0  0  0  0  0
   -0.7850    1.2494   29.3574 H   0  0  0  0  0  0  0  0  0  0  0  0
   -4.1071   -2.3852   32.6204 H   0  0  0  0  0  0  0  0  0  0  0  0
   -1.1514   -1.8416   35.3175 H   0  0  0  0  0  0  0  0  0  0  0  0
    0.9091    0.9071   36.5030 H   0  0  0  0  0  0  0  0  0  0  0  0
    2.5003    0.6904   38.2028 H   0  0  0  0  0  0  0  0  0  0  0  0
    3.0647   -3.8221   39.2091 H   0  0  0  0  0  0  0  0  0  0  0  0
    2.0799   -5.9220   38.3554 H   0  0  0  0  0  0  0  0  0  0  0  0
    0.1843   -5.8457   36.7622 H   0  0  0  0  0  0  0  0  0  0  0  0
   -0.6877   -3.7159   35.9554 H   0  0  0  0  0  0  0  0  0  0  0  0
    1.0907   -2.8048   34.1778 H   0  0  0  0  0  0  0  0  0  0  0  0
    4.9995   -1.5251   33.9368 H   0  0  0  0  0  0  0  0  0  0  0  0
    5.4652   -3.3123   32.2239 H   0  0  0  0  0  0  0  0  0  0  0  0
    0.9726   -5.8228   34.1401 H   0  0  0  0  0  0  0  0  0  0  0  0
  1  2  1  0
  2  3  2  0
  3  4  1  0
  4  5  2  0
  5  6  1  0
  6  7  2  0
  7  8  1  0
  8  9  1  0
  9 10  1  0
 10 11  1  0
 11 12  1  0
 11 13  1  0
 13 14  1  0
 14 15  1  0
 15 16  2  0
 16 17  1  0
 17 18  1  0
 18 19  2  0
 18 20  1  0
 20 21  1  0
 21 22  2  0
 22 23  1  0
 23 24  1  0
 24 25  2  0
 24 26  1  0
 26 27  2  0
 27 28  1  0
 28 29  2  0
 29 30  1  0
 30 31  2  0
  7 32  1  0
 32 33  1  0
 33 34  2  0
 34 35  1  0
 35 36  2  0
 36 37  1  0
 37 38  2  0
 32 39  2  0
 39 40  1  0
 40  2  1  0
 40  5  1  0
 17 13  2  0
 31 21  1  0
 38 33  1  0
 31 26  1  0
  1 41  1  0
  1 42  1  0
  6 43  1  0
  8 44  1  0
  9 45  1  0
  9 46  1  0
 10 47  1  0
 10 48  1  0
 11 49  1  0
 12 50  1  0
 12 51  1  0
 15 52  1  0
 20 53  1  0
 22 54  1  0
 23 55  1  0
 27 56  1  0
 28 57  1  0
 29 58  1  0
 30 59  1  0
 34 60  1  0
 36 61  1  0
 37 62  1  0
 39 63  1  0
M  END
>  <Energy>  (897) 
163.89239004142433

>  <compound_id>  (897) 
4433

>  <target_id>  (897) 
1

>  <reference_id>  (897) 
156

>  <inspiration_ids>  (897) 
[156, 56]

>  <energy_score>  (897) 
-62.54295228036352

>  <distance_score>  (897) 
1.3139741829990714

>  <path>  (897) 
/opt/xchem-fragalysis-2/maxwin/BulkDock/SCRATCH/505735/C4433-P156/C4433-P156.minimised.mol

>  <scratch_subdir>  (897) 
/opt/xchem-fragalysis-2/maxwin/BulkDock/SCRATCH/505735/C4433-P156

>  <fragmenstein_runtime>  (897) 
10.531392574310303

>  <fragmenstein_outcome>  (897) 
too moved

>  <fragmenstein_mode>  (897) 
expansion

>  <fragmenstein_error>  (897) 


$$$$
C4433-P56
     RDKit          3D

 63 68  0  0  0  0  0  0  0  0999 V2000
   -0.8110   -7.8858   34.5591 N   0  0  0  0  0  0  0  0  0  0  0  0
   -0.9751   -7.6771   33.2274 C   0  0  0  0  0  0  0  0  0  0  0  0
   -1.8039   -8.2989   32.4151 N   0  0  0  0  0  0  0  0  0  0  0  0
   -1.6091   -7.8084   31.1422 N   0  0  0  0  0  0  0  0  0  0  0  0
   -0.6773   -6.8807   31.2079 C   0  0  0  0  0  0  0  0  0  0  0  0
   -0.1372   -5.9970   30.2387 C   0  0  0  0  0  0  0  0  0  0  0  0
    0.7056   -4.9968   30.5921 C   0  0  0  0  0  0  0  0  0  0  0  0
    1.0572   -4.0171   29.6610 N   0  0  0  0  0  0  0  0  0  0  0  0
    1.0699   -2.5819   29.9445 C   0  0  0  0  0  0  0  0  0  0  0  0
   -0.0422   -1.8651   29.1727 C   0  0  0  0  0  0  0  0  0  0  0  0
   -0.5152   -0.5898   29.9023 C   0  0  0  0  0  0  0  0  0  0  0  0
   -1.3217    0.2287   28.9851 N   0  0  0  0  0  0  0  0  0  0  0  0
   -1.3418   -0.9315   31.1004 C   0  0  0  0  0  0  0  0  0  0  0  0
   -2.5164   -1.6060   30.8709 O   0  0  0  0  0  0  0  0  0  0  0  0
   -3.0515   -1.7991   32.1008 C   0  0  0  0  0  0  0  0  0  0  0  0
   -2.3102   -1.3929   33.0979 N   0  0  0  0  0  0  0  0  0  0  0  0
   -1.2168   -0.8024   32.4690 C   0  0  0  0  0  0  0  0  0  0  0  0
   -0.1161   -0.2535   33.2500 C   0  0  0  0  0  0  0  0  0  0  0  0
    0.6397    0.5376   32.8425 O   0  0  0  0  0  0  0  0  0  0  0  0
   -0.1861   -0.9578   34.6247 N   0  0  0  0  0  0  0  0  0  0  0  0
    0.6646   -0.9095   35.6886 C   0  0  0  0  0  0  0  0  0  0  0  0
    1.5510    0.0836   35.8542 C   0  0  0  0  0  0  0  0  0  0  0  0
    2.3904    0.1398   36.9344 N   0  0  0  0  0  0  0  0  0  0  0  0
    2.4380   -0.8086   37.9283 C   0  0  0  0  0  0  0  0  0  0  0  0
    3.1851   -0.6892   38.8937 O   0  0  0  0  0  0  0  0  0  0  0  0
    1.5375   -1.9798   37.7603 C   0  0  0  0  0  0  0  0  0  0  0  0
    1.6160   -3.0230   38.6771 C   0  0  0  0  0  0  0  0  0  0  0  0
    0.8316   -4.1503   38.4852 C   0  0  0  0  0  0  0  0  0  0  0  0
   -0.0039   -4.2585   37.3783 C   0  0  0  0  0  0  0  0  0  0  0  0
   -0.1073   -3.2025   36.4803 C   0  0  0  0  0  0  0  0  0  0  0  0
    0.6584   -2.0364   36.6623 C   0  0  0  0  0  0  0  0  0  0  0  0
    1.2319   -4.9497   31.9899 C   0  0  0  0  0  0  0  0  0  0  0  0
    2.3329   -4.0680   32.4475 C   0  0  0  0  0  0  0  0  0  0  0  0
    2.1768   -3.2545   33.5635 C   0  0  0  0  0  0  0  0  0  0  0  0
    3.0937   -2.3444   33.9714 N   0  0  0  0  0  0  0  0  0  0  0  0
    4.2106   -2.2909   33.2241 C   0  0  0  0  0  0  0  0  0  0  0  0
    4.3922   -3.1028   32.1184 C   0  0  0  0  0  0  0  0  0  0  0  0
    3.4640   -3.9969   31.7007 N   0  0  0  0  0  0  0  0  0  0  0  0
    0.7024   -5.8015   32.9004 C   0  0  0  0  0  0  0  0  0  0  0  0
   -0.2497   -6.7370   32.5117 N   0  0  0  0  0  0  0  0  0  0  0  0
   -1.2501   -8.7461   34.8921 H   0  0  0  0  0  0  0  0  0  0  0  0
    0.1678   -7.8974   34.8529 H   0  0  0  0  0  0  0  0  0  0  0  0
   -0.4995   -6.0951   29.2223 H   0  0  0  0  0  0  0  0  0  0  0  0
    0.7271   -4.2221   28.7191 H   0  0  0  0  0  0  0  0  0  0  0  0
    0.9578   -2.3911   31.0129 H   0  0  0  0  0  0  0  0  0  0  0  0
    2.0415   -2.1722   29.6466 H   0  0  0  0  0  0  0  0  0  0  0  0
    0.3494   -1.6123   28.1782 H   0  0  0  0  0  0  0  0  0  0  0  0
   -0.8923   -2.5403   29.0029 H   0  0  0  0  0  0  0  0  0  0  0  0
    0.3539    0.0054   30.2028 H   0  0  0  0  0  0  0  0  0  0  0  0
   -0.7867    0.4045   28.1357 H   0  0  0  0  0  0  0  0  0  0  0  0
   -2.1279   -0.3241   28.6884 H   0  0  0  0  0  0  0  0  0  0  0  0
   -4.0230   -2.2692   32.1417 H   0  0  0  0  0  0  0  0  0  0  0  0
   -1.0260   -1.5308   34.6705 H   0  0  0  0  0  0  0  0  0  0  0  0
    1.6357    0.9134   35.1599 H   0  0  0  0  0  0  0  0  0  0  0  0
    3.0322    0.9159   37.0350 H   0  0  0  0  0  0  0  0  0  0  0  0
    2.2984   -2.9719   39.5211 H   0  0  0  0  0  0  0  0  0  0  0  0
    0.8800   -4.9568   39.2089 H   0  0  0  0  0  0  0  0  0  0  0  0
   -0.5979   -5.1575   37.2319 H   0  0  0  0  0  0  0  0  0  0  0  0
   -0.7818   -3.3265   35.6377 H   0  0  0  0  0  0  0  0  0  0  0  0
    1.2758   -3.3023   34.1546 H   0  0  0  0  0  0  0  0  0  0  0  0
    4.9640   -1.5795   33.5406 H   0  0  0  0  0  0  0  0  0  0  0  0
    5.2994   -3.0542   31.5282 H   0  0  0  0  0  0  0  0  0  0  0  0
    1.0204   -5.8534   33.9345 H   0  0  0  0  0  0  0  0  0  0  0  0
  1  2  1  0
  2  3  2  0
  3  4  1  0
  4  5  2  0
  5  6  1  0
  6  7  2  0
  7  8  1  0
  8  9  1  0
  9 10  1  0
 10 11  1  0
 11 12  1  0
 11 13  1  0
 13 14  1  0
 14 15  1  0
 15 16  2  0
 16 17  1  0
 17 18  1  0
 18 19  2  0
 18 20  1  0
 20 21  1  0
 21 22  2  0
 22 23  1  0
 23 24  1  0
 24 25  2  0
 24 26  1  0
 26 27  2  0
 27 28  1  0
 28 29  2  0
 29 30  1  0
 30 31  2  0
  7 32  1  0
 32 33  1  0
 33 34  2  0
 34 35  1  0
 35 36  2  0
 36 37  1  0
 37 38  2  0
 32 39  2  0
 39 40  1  0
 40  2  1  0
 40  5  1  0
 17 13  2  0
 31 21  1  0
 38 33  1  0
 31 26  1  0
  1 41  1  0
  1 42  1  0
  6 43  1  0
  8 44  1  0
  9 45  1  0
  9 46  1  0
 10 47  1  0
 10 48  1  0
 11 49  1  0
 12 50  1  0
 12 51  1  0
 15 52  1  0
 20 53  1  0
 22 54  1  0
 23 55  1  0
 27 56  1  0
 28 57  1  0
 29 58  1  0
 30 59  1  0
 34 60  1  0
 36 61  1  0
 37 62  1  0
 39 63  1  0
M  END
>  <Energy>  (898) 
158.40842425305743

>  <compound_id>  (898) 
4433

>  <target_id>  (898) 
1

>  <reference_id>  (898) 
56

>  <inspiration_ids>  (898) 
[156, 56]

>  <energy_score>  (898) 
-68.02691806873105

>  <distance_score>  (898) 
1.5098285636184103

>  <path>  (898) 
/opt/xchem-fragalysis-2/maxwin/BulkDock/SCRATCH/505735/C4433-P56/C4433-P56.minimised.mol

>  <scratch_subdir>  (898) 
/opt/xchem-fragalysis-2/maxwin/BulkDock/SCRATCH/505735/C4433-P56

>  <fragmenstein_runtime>  (898) 
11.800199747085571

>  <fragmenstein_outcome>  (898) 
too moved

>  <fragmenstein_mode>  (898) 
expansion

>  <fragmenstein_error>  (898) 


$$$$
C4434-P156
     RDKit          3D

 60 65  0  0  0  0  0  0  0  0999 V2000
   -1.3729   -7.6850   34.9395 N   0  0  0  0  0  0  0  0  0  0  0  0
   -1.2758   -7.6402   33.5932 C   0  0  0  0  0  0  0  0  0  0  0  0
   -1.8506   -8.4709   32.7506 N   0  0  0  0  0  0  0  0  0  0  0  0
   -1.4661   -8.1608   31.4777 N   0  0  0  0  0  0  0  0  0  0  0  0
   -0.6523   -7.1388   31.5694 C   0  0  0  0  0  0  0  0  0  0  0  0
    0.0650   -6.4330   30.5927 C   0  0  0  0  0  0  0  0  0  0  0  0
    0.8702   -5.4300   30.9612 C   0  0  0  0  0  0  0  0  0  0  0  0
    1.0137   -4.9830   32.3638 C   0  0  0  0  0  0  0  0  0  0  0  0
    1.8602   -3.8036   32.6720 C   0  0  0  0  0  0  0  0  0  0  0  0
    2.0474   -3.2100   33.9099 C   0  0  0  0  0  0  0  0  0  0  0  0
    2.7975   -2.0925   34.0779 N   0  0  0  0  0  0  0  0  0  0  0  0
    3.3073   -1.5590   32.9366 C   0  0  0  0  0  0  0  0  0  0  0  0
    3.0815   -2.0934   31.6709 C   0  0  0  0  0  0  0  0  0  0  0  0
    3.5137   -1.4489   30.5082 N   0  0  0  0  0  0  0  0  0  0  0  0
    2.9027   -1.8929   29.2568 C   0  0  0  0  0  0  0  0  0  0  0  0
    1.6644   -1.2624   28.8252 N   0  0  0  0  0  0  0  0  0  0  0  0
    0.4479   -1.9525   29.2666 C   0  0  0  0  0  0  0  0  0  0  0  0
   -0.5677   -0.9325   29.5213 C   0  0  0  0  0  0  0  0  0  0  0  0
   -0.6492    0.0604   28.5802 O   0  0  0  0  0  0  0  0  0  0  0  0
   -1.4506    0.9757   29.1511 C   0  0  0  0  0  0  0  0  0  0  0  0
   -1.9140    0.6407   30.3335 N   0  0  0  0  0  0  0  0  0  0  0  0
   -1.4040   -0.6183   30.5657 C   0  0  0  0  0  0  0  0  0  0  0  0
   -1.8029   -1.3628   31.7634 C   0  0  0  0  0  0  0  0  0  0  0  0
   -1.7908   -2.5323   31.8266 O   0  0  0  0  0  0  0  0  0  0  0  0
   -2.3035   -0.3024   32.7872 N   0  0  0  0  0  0  0  0  0  0  0  0
   -2.9441   -0.4586   33.9916 C   0  0  0  0  0  0  0  0  0  0  0  0
   -2.6252    0.3517   35.0124 C   0  0  0  0  0  0  0  0  0  0  0  0
   -3.3965    0.4890   36.1375 N   0  0  0  0  0  0  0  0  0  0  0  0
   -4.6457   -0.0493   36.2954 C   0  0  0  0  0  0  0  0  0  0  0  0
   -5.3070    0.1292   37.3104 O   0  0  0  0  0  0  0  0  0  0  0  0
   -5.1304   -0.8349   35.1529 C   0  0  0  0  0  0  0  0  0  0  0  0
   -6.4760   -1.1890   35.1428 C   0  0  0  0  0  0  0  0  0  0  0  0
   -6.9706   -1.8478   34.0390 C   0  0  0  0  0  0  0  0  0  0  0  0
   -6.1123   -2.2325   33.0151 C   0  0  0  0  0  0  0  0  0  0  0  0
   -4.7635   -1.9134   33.0519 C   0  0  0  0  0  0  0  0  0  0  0  0
   -4.2594   -1.1329   34.0809 C   0  0  0  0  0  0  0  0  0  0  0  0
    2.4318   -3.2611   31.5684 N   0  0  0  0  0  0  0  0  0  0  0  0
    0.3056   -5.6714   33.2898 C   0  0  0  0  0  0  0  0  0  0  0  0
   -0.5032   -6.7402   32.8876 N   0  0  0  0  0  0  0  0  0  0  0  0
   -1.6301   -8.6219   35.2707 H   0  0  0  0  0  0  0  0  0  0  0  0
   -0.6486   -7.2785   35.5208 H   0  0  0  0  0  0  0  0  0  0  0  0
   -0.0553   -6.7217   29.5655 H   0  0  0  0  0  0  0  0  0  0  0  0
    1.4262   -4.9028   30.1907 H   0  0  0  0  0  0  0  0  0  0  0  0
    1.6025   -3.5962   34.8186 H   0  0  0  0  0  0  0  0  0  0  0  0
    3.8810   -0.6477   33.0664 H   0  0  0  0  0  0  0  0  0  0  0  0
    3.3410   -0.4505   30.5890 H   0  0  0  0  0  0  0  0  0  0  0  0
    3.6407   -1.6167   28.4922 H   0  0  0  0  0  0  0  0  0  0  0  0
    2.8548   -2.9868   29.1698 H   0  0  0  0  0  0  0  0  0  0  0  0
    1.6289   -1.1945   27.8090 H   0  0  0  0  0  0  0  0  0  0  0  0
    0.5990   -2.5163   30.1847 H   0  0  0  0  0  0  0  0  0  0  0  0
    0.1125   -2.6617   28.5038 H   0  0  0  0  0  0  0  0  0  0  0  0
   -1.6421    1.8802   28.5878 H   0  0  0  0  0  0  0  0  0  0  0  0
   -2.0881    0.6297   32.4436 H   0  0  0  0  0  0  0  0  0  0  0  0
   -1.7244    0.9589   34.9984 H   0  0  0  0  0  0  0  0  0  0  0  0
   -3.0817    1.0768   36.9012 H   0  0  0  0  0  0  0  0  0  0  0  0
   -7.1387   -0.8987   35.9535 H   0  0  0  0  0  0  0  0  0  0  0  0
   -8.0282   -2.0689   33.9851 H   0  0  0  0  0  0  0  0  0  0  0  0
   -6.4857   -2.7583   32.1473 H   0  0  0  0  0  0  0  0  0  0  0  0
   -4.1492   -2.2399   32.2255 H   0  0  0  0  0  0  0  0  0  0  0  0
    0.2937   -5.4433   34.3467 H   0  0  0  0  0  0  0  0  0  0  0  0
  1  2  1  0
  2  3  2  0
  3  4  1  0
  4  5  2  0
  5  6  1  0
  6  7  2  0
  7  8  1  0
  8  9  1  0
  9 10  2  0
 10 11  1  0
 11 12  2  0
 12 13  1  0
 13 14  1  0
 14 15  1  0
 15 16  1  0
 16 17  1  0
 17 18  1  0
 18 19  1  0
 19 20  1  0
 20 21  2  0
 21 22  1  0
 22 23  1  0
 23 24  2  0
 23 25  1  0
 25 26  1  0
 26 27  2  0
 27 28  1  0
 28 29  1  0
 29 30  2  0
 29 31  1  0
 31 32  2  0
 32 33  1  0
 33 34  2  0
 34 35  1  0
 35 36  2  0
 13 37  2  0
  8 38  2  0
 38 39  1  0
 39  2  1  0
 39  5  1  0
 37  9  1  0
 22 18  2  0
 36 26  1  0
 36 31  1  0
  1 40  1  0
  1 41  1  0
  6 42  1  0
  7 43  1  0
 10 44  1  0
 12 45  1  0
 14 46  1  0
 15 47  1  0
 15 48  1  0
 16 49  1  0
 17 50  1  0
 17 51  1  0
 20 52  1  0
 25 53  1  0
 27 54  1  0
 28 55  1  0
 32 56  1  0
 33 57  1  0
 34 58  1  0
 35 59  1  0
 38 60  1  0
M  END
>  <Energy>  (899) 
108.23555950045979

>  <compound_id>  (899) 
4434

>  <target_id>  (899) 
1

>  <reference_id>  (899) 
156

>  <inspiration_ids>  (899) 
[156, 59]

>  <energy_score>  (899) 
-46.8871444102154

>  <distance_score>  (899) 
1.5007539182616374

>  <path>  (899) 
/opt/xchem-fragalysis-2/maxwin/BulkDock/SCRATCH/505735/C4434-P156/C4434-P156.minimised.mol

>  <scratch_subdir>  (899) 
/opt/xchem-fragalysis-2/maxwin/BulkDock/SCRATCH/505735/C4434-P156

>  <fragmenstein_runtime>  (899) 
7.137634992599487

>  <fragmenstein_outcome>  (899) 
too moved

>  <fragmenstein_mode>  (899) 
expansion

>  <fragmenstein_error>  (899) 


$$$$
C4434-P59
     RDKit          3D

 60 65  0  0  0  0  0  0  0  0999 V2000
   -0.9041   -7.5738   35.0510 N   0  0  0  0  0  0  0  0  0  0  0  0
   -1.0811   -7.5065   33.7128 C   0  0  0  0  0  0  0  0  0  0  0  0
   -1.8235   -8.2985   32.9708 N   0  0  0  0  0  0  0  0  0  0  0  0
   -1.6556   -7.9726   31.6589 N   0  0  0  0  0  0  0  0  0  0  0  0
   -0.8214   -6.9655   31.6349 C   0  0  0  0  0  0  0  0  0  0  0  0
   -0.3195   -6.2140   30.5719 C   0  0  0  0  0  0  0  0  0  0  0  0
    0.5277   -5.2082   30.8062 C   0  0  0  0  0  0  0  0  0  0  0  0
    0.9349   -4.8057   32.1690 C   0  0  0  0  0  0  0  0  0  0  0  0
    1.7575   -3.5883   32.3417 C   0  0  0  0  0  0  0  0  0  0  0  0
    2.2718   -3.0749   33.5192 C   0  0  0  0  0  0  0  0  0  0  0  0
    2.9595   -1.9072   33.5613 N   0  0  0  0  0  0  0  0  0  0  0  0
    3.0881   -1.2646   32.3662 C   0  0  0  0  0  0  0  0  0  0  0  0
    2.5443   -1.7331   31.1715 C   0  0  0  0  0  0  0  0  0  0  0  0
    2.6084   -1.0083   29.9770 N   0  0  0  0  0  0  0  0  0  0  0  0
    1.8285   -1.5045   28.8382 C   0  0  0  0  0  0  0  0  0  0  0  0
    0.5544   -0.8890   28.4400 N   0  0  0  0  0  0  0  0  0  0  0  0
   -0.5512   -1.1449   29.3780 C   0  0  0  0  0  0  0  0  0  0  0  0
   -0.4860   -0.2708   30.5759 C   0  0  0  0  0  0  0  0  0  0  0  0
    0.4021    0.7828   30.5092 O   0  0  0  0  0  0  0  0  0  0  0  0
    0.3170    1.3916   31.7068 C   0  0  0  0  0  0  0  0  0  0  0  0
   -0.5361    0.8510   32.5399 N   0  0  0  0  0  0  0  0  0  0  0  0
   -1.0990   -0.2008   31.8139 C   0  0  0  0  0  0  0  0  0  0  0  0
   -2.2191   -0.9598   32.3850 C   0  0  0  0  0  0  0  0  0  0  0  0
   -2.8215   -1.7723   31.7950 O   0  0  0  0  0  0  0  0  0  0  0  0
   -2.4441   -0.3738   33.8107 N   0  0  0  0  0  0  0  0  0  0  0  0
   -3.3507   -0.7185   34.7848 C   0  0  0  0  0  0  0  0  0  0  0  0
   -2.9448   -0.6431   36.0618 C   0  0  0  0  0  0  0  0  0  0  0  0
   -3.7766   -0.8186   37.1336 N   0  0  0  0  0  0  0  0  0  0  0  0
   -5.1275   -1.0025   37.0454 C   0  0  0  0  0  0  0  0  0  0  0  0
   -5.8291   -1.1729   38.0350 O   0  0  0  0  0  0  0  0  0  0  0  0
   -5.6749   -0.9850   35.6835 C   0  0  0  0  0  0  0  0  0  0  0  0
   -7.0649   -1.0026   35.5613 C   0  0  0  0  0  0  0  0  0  0  0  0
   -7.6166   -0.9445   34.3024 C   0  0  0  0  0  0  0  0  0  0  0  0
   -6.7895   -0.8919   33.1903 C   0  0  0  0  0  0  0  0  0  0  0  0
   -5.4015   -0.8639   33.3240 C   0  0  0  0  0  0  0  0  0  0  0  0
   -4.8042   -0.9035   34.5727 C   0  0  0  0  0  0  0  0  0  0  0  0
    1.9285   -2.9192   31.1763 N   0  0  0  0  0  0  0  0  0  0  0  0
    0.4365   -5.5414   33.1893 C   0  0  0  0  0  0  0  0  0  0  0  0
   -0.4302   -6.6032   32.9080 N   0  0  0  0  0  0  0  0  0  0  0  0
   -1.2881   -8.4626   35.3983 H   0  0  0  0  0  0  0  0  0  0  0  0
   -1.3098   -6.8114   35.5866 H   0  0  0  0  0  0  0  0  0  0  0  0
   -0.6926   -6.4463   29.5963 H   0  0  0  0  0  0  0  0  0  0  0  0
    0.8875   -4.6296   29.9594 H   0  0  0  0  0  0  0  0  0  0  0  0
    2.1561   -3.5718   34.4743 H   0  0  0  0  0  0  0  0  0  0  0  0
    3.6306   -0.3259   32.4001 H   0  0  0  0  0  0  0  0  0  0  0  0
    2.3204   -0.0459   30.1360 H   0  0  0  0  0  0  0  0  0  0  0  0
    2.4874   -1.3263   27.9784 H   0  0  0  0  0  0  0  0  0  0  0  0
    1.7224   -2.5964   28.8425 H   0  0  0  0  0  0  0  0  0  0  0  0
    0.2879   -1.2784   27.5329 H   0  0  0  0  0  0  0  0  0  0  0  0
   -0.5877   -2.2022   29.6627 H   0  0  0  0  0  0  0  0  0  0  0  0
   -1.4914   -0.9251   28.8581 H   0  0  0  0  0  0  0  0  0  0  0  0
    0.9491    2.2559   31.8606 H   0  0  0  0  0  0  0  0  0  0  0  0
   -1.6790    0.2607   34.0434 H   0  0  0  0  0  0  0  0  0  0  0  0
   -1.9078   -0.4481   36.3223 H   0  0  0  0  0  0  0  0  0  0  0  0
   -3.4020   -0.7900   38.0758 H   0  0  0  0  0  0  0  0  0  0  0  0
   -7.7065   -1.0317   36.4374 H   0  0  0  0  0  0  0  0  0  0  0  0
   -8.6878   -0.9417   34.1813 H   0  0  0  0  0  0  0  0  0  0  0  0
   -7.2376   -0.8535   32.2047 H   0  0  0  0  0  0  0  0  0  0  0  0
   -4.8048   -0.7809   32.4318 H   0  0  0  0  0  0  0  0  0  0  0  0
    0.6266   -5.3565   34.2380 H   0  0  0  0  0  0  0  0  0  0  0  0
  1  2  1  0
  2  3  2  0
  3  4  1  0
  4  5  2  0
  5  6  1  0
  6  7  2  0
  7  8  1  0
  8  9  1  0
  9 10  2  0
 10 11  1  0
 11 12  2  0
 12 13  1  0
 13 14  1  0
 14 15  1  0
 15 16  1  0
 16 17  1  0
 17 18  1  0
 18 19  1  0
 19 20  1  0
 20 21  2  0
 21 22  1  0
 22 23  1  0
 23 24  2  0
 23 25  1  0
 25 26  1  0
 26 27  2  0
 27 28  1  0
 28 29  1  0
 29 30  2  0
 29 31  1  0
 31 32  2  0
 32 33  1  0
 33 34  2  0
 34 35  1  0
 35 36  2  0
 13 37  2  0
  8 38  2  0
 38 39  1  0
 39  2  1  0
 39  5  1  0
 37  9  1  0
 22 18  2  0
 36 26  1  0
 36 31  1  0
  1 40  1  0
  1 41  1  0
  6 42  1  0
  7 43  1  0
 10 44  1  0
 12 45  1  0
 14 46  1  0
 15 47  1  0
 15 48  1  0
 16 49  1  0
 17 50  1  0
 17 51  1  0
 20 52  1  0
 25 53  1  0
 27 54  1  0
 28 55  1  0
 32 56  1  0
 33 57  1  0
 34 58  1  0
 35 59  1  0
 38 60  1  0
M  END
>  <Energy>  (900) 
98.449747571610189

>  <compound_id>  (900) 
4434

>  <target_id>  (900) 
1

>  <reference_id>  (900) 
59

>  <inspiration_ids>  (900) 
[156, 59]

>  <energy_score>  (900) 
-56.67295633906127

>  <distance_score>  (900) 
1.5575151161592142

>  <path>  (900) 
/opt/xchem-fragalysis-2/maxwin/BulkDock/SCRATCH/505735/C4434-P59/C4434-P59.minimised.mol

>  <scratch_subdir>  (900) 
/opt/xchem-fragalysis-2/maxwin/BulkDock/SCRATCH/505735/C4434-P59

>  <fragmenstein_runtime>  (900) 
12.056206941604614

>  <fragmenstein_outcome>  (900) 
too moved

>  <fragmenstein_mode>  (900) 
expansion

>  <fragmenstein_error>  (900) 


$$$$
C4435-P156
     RDKit          3D

 37 40  0  0  0  0  0  0  0  0999 V2000
   -1.3477   -7.8216   34.6938 N   0  0  0  0  0  0  0  0  0  0  0  0
   -1.2284   -7.5884   33.3560 C   0  0  0  0  0  0  0  0  0  0  0  0
   -1.7714   -8.3007   32.3946 N   0  0  0  0  0  0  0  0  0  0  0  0
   -1.3071   -7.8406   31.1920 N   0  0  0  0  0  0  0  0  0  0  0  0
   -0.4823   -6.8503   31.4437 C   0  0  0  0  0  0  0  0  0  0  0  0
    0.3206   -6.0585   30.6039 C   0  0  0  0  0  0  0  0  0  0  0  0
    1.1162   -5.1259   31.1423 C   0  0  0  0  0  0  0  0  0  0  0  0
    1.1607   -4.8369   32.5904 C   0  0  0  0  0  0  0  0  0  0  0  0
    2.0230   -3.7093   33.0022 C   0  0  0  0  0  0  0  0  0  0  0  0
    1.5310   -2.5732   33.6400 C   0  0  0  0  0  0  0  0  0  0  0  0
    2.3028   -1.4966   33.9264 N   0  0  0  0  0  0  0  0  0  0  0  0
    3.5952   -1.5999   33.5459 C   0  0  0  0  0  0  0  0  0  0  0  0
    4.0866   -2.7109   32.8819 C   0  0  0  0  0  0  0  0  0  0  0  0
    3.3128   -3.7775   32.5746 N   0  0  0  0  0  0  0  0  0  0  0  0
    0.3521   -5.5726   33.4061 C   0  0  0  0  0  0  0  0  0  0  0  0
    0.1879   -5.4283   34.7677 N   0  0  0  0  0  0  0  0  0  0  0  0
    1.1835   -4.9065   35.8600 C   0  0  0  0  0  0  0  0  0  0  0  0
    2.2831   -4.6051   35.7731 O   0  0  0  0  0  0  0  0  0  0  0  0
    0.2396   -4.9347   37.1063 N   0  0  0  0  0  0  0  0  0  0  0  0
    0.4575   -4.5236   38.3869 C   0  0  0  0  0  0  0  0  0  0  0  0
    1.6051   -3.9418   38.9591 C   0  0  0  0  0  0  0  0  0  0  0  0
    1.4380   -3.6732   40.2581 N   0  0  0  0  0  0  0  0  0  0  0  0
    0.1839   -4.0873   40.5087 N   0  0  0  0  0  0  0  0  0  0  0  0
   -0.4495   -4.6032   39.4125 C   0  0  0  0  0  0  0  0  0  0  0  0
   -0.4316   -6.5922   32.8041 N   0  0  0  0  0  0  0  0  0  0  0  0
   -0.4689   -7.7784   35.2101 H   0  0  0  0  0  0  0  0  0  0  0  0
   -1.7071   -8.7783   34.8455 H   0  0  0  0  0  0  0  0  0  0  0  0
    0.2903   -6.2182   29.5394 H   0  0  0  0  0  0  0  0  0  0  0  0
    1.7455   -4.5178   30.4933 H   0  0  0  0  0  0  0  0  0  0  0  0
    0.4911   -2.4848   33.9332 H   0  0  0  0  0  0  0  0  0  0  0  0
    4.2308   -0.7553   33.7865 H   0  0  0  0  0  0  0  0  0  0  0  0
    5.1251   -2.7718   32.5776 H   0  0  0  0  0  0  0  0  0  0  0  0
   -0.6901   -5.6805   35.1997 H   0  0  0  0  0  0  0  0  0  0  0  0
   -0.6465   -5.3291   36.8503 H   0  0  0  0  0  0  0  0  0  0  0  0
    2.5497   -3.7031   38.4862 H   0  0  0  0  0  0  0  0  0  0  0  0
   -0.1764   -3.9867   41.4523 H   0  0  0  0  0  0  0  0  0  0  0  0
   -1.4645   -4.9673   39.4788 H   0  0  0  0  0  0  0  0  0  0  0  0
  1  2  1  0
  2  3  2  0
  3  4  1  0
  4  5  2  0
  5  6  1  0
  6  7  2  0
  7  8  1  0
  8  9  1  0
  9 10  2  0
 10 11  1  0
 11 12  2  0
 12 13  1  0
 13 14  2  0
  8 15  2  0
 15 16  1  0
 16 17  1  0
 17 18  2  0
 17 19  1  0
 19 20  1  0
 20 21  1  0
 21 22  2  0
 22 23  1  0
 23 24  1  0
 15 25  1  0
 25  2  1  0
 25  5  1  0
 14  9  1  0
 24 20  2  0
  1 26  1  0
  1 27  1  0
  6 28  1  0
  7 29  1  0
 10 30  1  0
 12 31  1  0
 13 32  1  0
 16 33  1  0
 19 34  1  0
 21 35  1  0
 23 36  1  0
 24 37  1  0
M  END
>  <Energy>  (901) 
104.56495348146575

>  <compound_id>  (901) 
4435

>  <target_id>  (901) 
1

>  <reference_id>  (901) 
156

>  <inspiration_ids>  (901) 
[156, 78]

>  <energy_score>  (901) 
-42.39164693821678

>  <distance_score>  (901) 
1.2225760540476893

>  <path>  (901) 
/opt/xchem-fragalysis-2/maxwin/BulkDock/SCRATCH/505735/C4435-P156/C4435-P156.minimised.mol

>  <scratch_subdir>  (901) 
/opt/xchem-fragalysis-2/maxwin/BulkDock/SCRATCH/505735/C4435-P156

>  <fragmenstein_runtime>  (901) 
2.1945607662200928

>  <fragmenstein_outcome>  (901) 
too moved

>  <fragmenstein_mode>  (901) 
expansion

>  <fragmenstein_error>  (901) 


$$$$
C4435-P78
     RDKit          3D

 37 40  0  0  0  0  0  0  0  0999 V2000
   -1.3124   -7.8006   34.6931 N   0  0  0  0  0  0  0  0  0  0  0  0
   -1.2124   -7.5203   33.3608 C   0  0  0  0  0  0  0  0  0  0  0  0
   -1.7932   -8.1734   32.3793 N   0  0  0  0  0  0  0  0  0  0  0  0
   -1.3390   -7.6665   31.1901 N   0  0  0  0  0  0  0  0  0  0  0  0
   -0.4851   -6.7088   31.4723 C   0  0  0  0  0  0  0  0  0  0  0  0
    0.3133   -5.8838   30.6622 C   0  0  0  0  0  0  0  0  0  0  0  0
    1.1358   -4.9944   31.2291 C   0  0  0  0  0  0  0  0  0  0  0  0
    1.2112   -4.7762   32.6864 C   0  0  0  0  0  0  0  0  0  0  0  0
    2.0848   -3.6685   33.1204 C   0  0  0  0  0  0  0  0  0  0  0  0
    1.5973   -2.5362   33.7677 C   0  0  0  0  0  0  0  0  0  0  0  0
    2.3699   -1.4587   34.0484 N   0  0  0  0  0  0  0  0  0  0  0  0
    3.6575   -1.5579   33.6506 C   0  0  0  0  0  0  0  0  0  0  0  0
    4.1444   -2.6659   32.9781 C   0  0  0  0  0  0  0  0  0  0  0  0
    3.3699   -3.7329   32.6779 N   0  0  0  0  0  0  0  0  0  0  0  0
    0.4093   -5.5415   33.4801 C   0  0  0  0  0  0  0  0  0  0  0  0
    0.2542   -5.4666   34.8490 N   0  0  0  0  0  0  0  0  0  0  0  0
    1.2316   -4.9386   35.9525 C   0  0  0  0  0  0  0  0  0  0  0  0
    2.3115   -4.5723   35.8684 O   0  0  0  0  0  0  0  0  0  0  0  0
    0.3136   -5.0954   37.2078 N   0  0  0  0  0  0  0  0  0  0  0  0
    0.5320   -4.7524   38.5089 C   0  0  0  0  0  0  0  0  0  0  0  0
    1.6944   -4.2447   39.1200 C   0  0  0  0  0  0  0  0  0  0  0  0
    1.5221   -4.0331   40.4289 N   0  0  0  0  0  0  0  0  0  0  0  0
    0.2471   -4.3996   40.6447 N   0  0  0  0  0  0  0  0  0  0  0  0
   -0.3913   -4.8421   39.5196 C   0  0  0  0  0  0  0  0  0  0  0  0
   -0.3997   -6.5212   32.8410 N   0  0  0  0  0  0  0  0  0  0  0  0
   -0.4051   -7.8637   35.1575 H   0  0  0  0  0  0  0  0  0  0  0  0
   -1.6924   -8.7599   34.7964 H   0  0  0  0  0  0  0  0  0  0  0  0
    0.2571   -5.9667   29.5936 H   0  0  0  0  0  0  0  0  0  0  0  0
    1.7568   -4.3614   30.5960 H   0  0  0  0  0  0  0  0  0  0  0  0
    0.5595   -2.4504   34.0685 H   0  0  0  0  0  0  0  0  0  0  0  0
    4.2938   -0.7120   33.8848 H   0  0  0  0  0  0  0  0  0  0  0  0
    5.1790   -2.7232   32.6605 H   0  0  0  0  0  0  0  0  0  0  0  0
   -0.6029   -5.7866   35.2780 H   0  0  0  0  0  0  0  0  0  0  0  0
   -0.6090   -5.3671   36.9203 H   0  0  0  0  0  0  0  0  0  0  0  0
    2.6535   -4.0220   38.6687 H   0  0  0  0  0  0  0  0  0  0  0  0
   -0.1225   -4.3213   41.5869 H   0  0  0  0  0  0  0  0  0  0  0  0
   -1.4214   -5.1661   39.5572 H   0  0  0  0  0  0  0  0  0  0  0  0
  1  2  1  0
  2  3  2  0
  3  4  1  0
  4  5  2  0
  5  6  1  0
  6  7  2  0
  7  8  1  0
  8  9  1  0
  9 10  2  0
 10 11  1  0
 11 12  2  0
 12 13  1  0
 13 14  2  0
  8 15  2  0
 15 16  1  0
 16 17  1  0
 17 18  2  0
 17 19  1  0
 19 20  1  0
 20 21  1  0
 21 22  2  0
 22 23  1  0
 23 24  1  0
 15 25  1  0
 25  2  1  0
 25  5  1  0
 14  9  1  0
 24 20  2  0
  1 26  1  0
  1 27  1  0
  6 28  1  0
  7 29  1  0
 10 30  1  0
 12 31  1  0
 13 32  1  0
 16 33  1  0
 19 34  1  0
 21 35  1  0
 23 36  1  0
 24 37  1  0
M  END
>  <Energy>  (902) 
104.31224817065845

>  <compound_id>  (902) 
4435

>  <target_id>  (902) 
1

>  <reference_id>  (902) 
78

>  <inspiration_ids>  (902) 
[156, 78]

>  <energy_score>  (902) 
-42.644352249023655

>  <distance_score>  (902) 
1.2505423776315532

>  <path>  (902) 
/opt/xchem-fragalysis-2/maxwin/BulkDock/SCRATCH/505735/C4435-P78/C4435-P78.minimised.mol

>  <scratch_subdir>  (902) 
/opt/xchem-fragalysis-2/maxwin/BulkDock/SCRATCH/505735/C4435-P78

>  <fragmenstein_runtime>  (902) 
1.5617272853851318

>  <fragmenstein_outcome>  (902) 
too moved

>  <fragmenstein_mode>  (902) 
expansion

>  <fragmenstein_error>  (902) 


$$$$
C4435-P156
     RDKit          3D

 37 40  0  0  0  0  0  0  0  0999 V2000
   -1.3062   -7.8245   34.5107 N   0  0  0  0  0  0  0  0  0  0  0  0
   -1.0304   -7.6120   33.1997 C   0  0  0  0  0  0  0  0  0  0  0  0
   -1.5775   -8.2999   32.2193 N   0  0  0  0  0  0  0  0  0  0  0  0
   -1.2128   -7.7451   31.0329 N   0  0  0  0  0  0  0  0  0  0  0  0
   -0.4517   -6.7121   31.3062 C   0  0  0  0  0  0  0  0  0  0  0  0
    0.0629   -5.7135   30.4544 C   0  0  0  0  0  0  0  0  0  0  0  0
    0.7883   -4.7137   30.9646 C   0  0  0  0  0  0  0  0  0  0  0  0
    1.1185   -4.6398   32.3857 C   0  0  0  0  0  0  0  0  0  0  0  0
    2.0334   -3.5751   32.8335 C   0  0  0  0  0  0  0  0  0  0  0  0
    1.5989   -2.5039   33.6067 C   0  0  0  0  0  0  0  0  0  0  0  0
    2.4382   -1.5382   34.0461 N   0  0  0  0  0  0  0  0  0  0  0  0
    3.7219   -1.6534   33.6344 C   0  0  0  0  0  0  0  0  0  0  0  0
    4.1528   -2.7015   32.8394 C   0  0  0  0  0  0  0  0  0  0  0  0
    3.3232   -3.6889   32.4305 N   0  0  0  0  0  0  0  0  0  0  0  0
    0.6624   -5.6123   33.2294 C   0  0  0  0  0  0  0  0  0  0  0  0
    1.0856   -5.6052   34.5443 N   0  0  0  0  0  0  0  0  0  0  0  0
    1.3426   -6.7877   35.5292 C   0  0  0  0  0  0  0  0  0  0  0  0
    1.3086   -7.9163   35.3519 O   0  0  0  0  0  0  0  0  0  0  0  0
    1.5581   -5.9792   36.8504 N   0  0  0  0  0  0  0  0  0  0  0  0
    1.6705   -6.4096   38.1414 C   0  0  0  0  0  0  0  0  0  0  0  0
    1.9058   -5.6666   39.3143 C   0  0  0  0  0  0  0  0  0  0  0  0
    1.9245   -6.4346   40.4083 N   0  0  0  0  0  0  0  0  0  0  0  0
    1.6734   -7.6700   39.9324 N   0  0  0  0  0  0  0  0  0  0  0  0
    1.5341   -7.7020   38.5750 C   0  0  0  0  0  0  0  0  0  0  0  0
   -0.1904   -6.6224   32.6784 N   0  0  0  0  0  0  0  0  0  0  0  0
   -1.8283   -8.7045   34.6205 H   0  0  0  0  0  0  0  0  0  0  0  0
   -0.4830   -7.9714   35.0936 H   0  0  0  0  0  0  0  0  0  0  0  0
   -0.1863   -5.7378   29.4037 H   0  0  0  0  0  0  0  0  0  0  0  0
    1.1687   -3.9315   30.3101 H   0  0  0  0  0  0  0  0  0  0  0  0
    0.5601   -2.3895   33.8999 H   0  0  0  0  0  0  0  0  0  0  0  0
    4.3996   -0.8721   33.9612 H   0  0  0  0  0  0  0  0  0  0  0  0
    5.1842   -2.7779   32.5132 H   0  0  0  0  0  0  0  0  0  0  0  0
    1.2784   -4.7330   35.0052 H   0  0  0  0  0  0  0  0  0  0  0  0
    1.6133   -4.9986   36.6418 H   0  0  0  0  0  0  0  0  0  0  0  0
    2.0634   -4.6023   39.4261 H   0  0  0  0  0  0  0  0  0  0  0  0
    1.6045   -8.4457   40.5857 H   0  0  0  0  0  0  0  0  0  0  0  0
    1.3251   -8.6290   38.0643 H   0  0  0  0  0  0  0  0  0  0  0  0
  1  2  1  0
  2  3  2  0
  3  4  1  0
  4  5  2  0
  5  6  1  0
  6  7  2  0
  7  8  1  0
  8  9  1  0
  9 10  2  0
 10 11  1  0
 11 12  2  0
 12 13  1  0
 13 14  2  0
  8 15  2  0
 15 16  1  0
 16 17  1  0
 17 18  2  0
 17 19  1  0
 19 20  1  0
 20 21  1  0
 21 22  2  0
 22 23  1  0
 23 24  1  0
 15 25  1  0
 25  2  1  0
 25  5  1  0
 14  9  1  0
 24 20  2  0
  1 26  1  0
  1 27  1  0
  6 28  1  0
  7 29  1  0
 10 30  1  0
 12 31  1  0
 13 32  1  0
 16 33  1  0
 19 34  1  0
 21 35  1  0
 23 36  1  0
 24 37  1  0
M  END
>  <Energy>  (903) 
108.27411165684053

>  <compound_id>  (903) 
4435

>  <target_id>  (903) 
1

>  <reference_id>  (903) 
156

>  <inspiration_ids>  (903) 
[156, 105]

>  <energy_score>  (903) 
-38.682488762842326

>  <distance_score>  (903) 
0.5398522698414497

>  <path>  (903) 
/opt/xchem-fragalysis-2/maxwin/BulkDock/SCRATCH/505735/C4435-P156/C4435-P156.minimised.mol

>  <scratch_subdir>  (903) 
/opt/xchem-fragalysis-2/maxwin/BulkDock/SCRATCH/505735/C4435-P156

>  <fragmenstein_runtime>  (903) 
1.3946280479431152

>  <fragmenstein_outcome>  (903) 
acceptable

>  <fragmenstein_mode>  (903) 
expansion

>  <fragmenstein_error>  (903) 


$$$$
C4435-P105
     RDKit          3D

 37 40  0  0  0  0  0  0  0  0999 V2000
   -0.8445   -7.8927   34.7248 N   0  0  0  0  0  0  0  0  0  0  0  0
   -0.9625   -7.4963   33.4419 C   0  0  0  0  0  0  0  0  0  0  0  0
   -1.5731   -8.1794   32.4978 N   0  0  0  0  0  0  0  0  0  0  0  0
   -1.3512   -7.5698   31.3021 N   0  0  0  0  0  0  0  0  0  0  0  0
   -0.5760   -6.5378   31.5352 C   0  0  0  0  0  0  0  0  0  0  0  0
    0.0308   -5.6411   30.6366 C   0  0  0  0  0  0  0  0  0  0  0  0
    0.8953   -4.7302   31.0899 C   0  0  0  0  0  0  0  0  0  0  0  0
    1.1758   -4.5704   32.5144 C   0  0  0  0  0  0  0  0  0  0  0  0
    2.1145   -3.5056   32.9143 C   0  0  0  0  0  0  0  0  0  0  0  0
    1.7129   -2.3906   33.6435 C   0  0  0  0  0  0  0  0  0  0  0  0
    2.5778   -1.4224   34.0254 N   0  0  0  0  0  0  0  0  0  0  0  0
    3.8511   -1.5801   33.5990 C   0  0  0  0  0  0  0  0  0  0  0  0
    4.2504   -2.6731   32.8501 C   0  0  0  0  0  0  0  0  0  0  0  0
    3.3979   -3.6644   32.5041 N   0  0  0  0  0  0  0  0  0  0  0  0
    0.5187   -5.3537   33.4232 C   0  0  0  0  0  0  0  0  0  0  0  0
    0.7490   -5.1136   34.7689 N   0  0  0  0  0  0  0  0  0  0  0  0
   -0.1942   -5.3011   36.0111 C   0  0  0  0  0  0  0  0  0  0  0  0
   -1.2475   -5.7474   36.0797 O   0  0  0  0  0  0  0  0  0  0  0  0
    0.7269   -4.7045   37.1296 N   0  0  0  0  0  0  0  0  0  0  0  0
    0.4778   -4.4809   38.4531 C   0  0  0  0  0  0  0  0  0  0  0  0
    1.3275   -3.9328   39.4341 C   0  0  0  0  0  0  0  0  0  0  0  0
    0.7424   -3.8639   40.6337 N   0  0  0  0  0  0  0  0  0  0  0  0
   -0.4859   -4.3699   40.4138 N   0  0  0  0  0  0  0  0  0  0  0  0
   -0.6878   -4.7528   39.1199 C   0  0  0  0  0  0  0  0  0  0  0  0
   -0.3357   -6.3769   32.9048 N   0  0  0  0  0  0  0  0  0  0  0  0
   -1.2610   -8.8243   34.8806 H   0  0  0  0  0  0  0  0  0  0  0  0
   -1.2699   -7.2580   35.4047 H   0  0  0  0  0  0  0  0  0  0  0  0
   -0.2123   -5.7023   29.5897 H   0  0  0  0  0  0  0  0  0  0  0  0
    1.3749   -4.0453   30.3932 H   0  0  0  0  0  0  0  0  0  0  0  0
    0.6812   -2.2425   33.9475 H   0  0  0  0  0  0  0  0  0  0  0  0
    4.5470   -0.7954   33.8757 H   0  0  0  0  0  0  0  0  0  0  0  0
    5.2745   -2.7833   32.5108 H   0  0  0  0  0  0  0  0  0  0  0  0
    1.6418   -4.7618   35.0710 H   0  0  0  0  0  0  0  0  0  0  0  0
    1.6232   -4.4735   36.7419 H   0  0  0  0  0  0  0  0  0  0  0  0
    2.3449   -3.5796   39.3321 H   0  0  0  0  0  0  0  0  0  0  0  0
   -1.1368   -4.4251   41.1912 H   0  0  0  0  0  0  0  0  0  0  0  0
   -1.6284   -5.1769   38.8042 H   0  0  0  0  0  0  0  0  0  0  0  0
  1  2  1  0
  2  3  2  0
  3  4  1  0
  4  5  2  0
  5  6  1  0
  6  7  2  0
  7  8  1  0
  8  9  1  0
  9 10  2  0
 10 11  1  0
 11 12  2  0
 12 13  1  0
 13 14  2  0
  8 15  2  0
 15 16  1  0
 16 17  1  0
 17 18  2  0
 17 19  1  0
 19 20  1  0
 20 21  1  0
 21 22  2  0
 22 23  1  0
 23 24  1  0
 15 25  1  0
 25  2  1  0
 25  5  1  0
 14  9  1  0
 24 20  2  0
  1 26  1  0
  1 27  1  0
  6 28  1  0
  7 29  1  0
 10 30  1  0
 12 31  1  0
 13 32  1  0
 16 33  1  0
 19 34  1  0
 21 35  1  0
 23 36  1  0
 24 37  1  0
M  END
>  <Energy>  (904) 
106.38811241055339

>  <compound_id>  (904) 
4435

>  <target_id>  (904) 
1

>  <reference_id>  (904) 
105

>  <inspiration_ids>  (904) 
[156, 105]

>  <energy_score>  (904) 
-40.56848800912849

>  <distance_score>  (904) 
0.6433646783745466

>  <path>  (904) 
/opt/xchem-fragalysis-2/maxwin/BulkDock/SCRATCH/505735/C4435-P105/C4435-P105.minimised.mol

>  <scratch_subdir>  (904) 
/opt/xchem-fragalysis-2/maxwin/BulkDock/SCRATCH/505735/C4435-P105

>  <fragmenstein_runtime>  (904) 
1.4034380912780762

>  <fragmenstein_outcome>  (904) 
acceptable

>  <fragmenstein_mode>  (904) 
expansion

>  <fragmenstein_error>  (904) 


$$$$
C4438-P156
     RDKit          3D

 36 39  0  0  0  0  0  0  0  0999 V2000
    0.3632    2.0506   28.9505 C   0  0  0  0  0  0  0  0  0  0  0  0
   -0.0577    0.8203   29.4243 C   0  0  0  0  0  0  0  0  0  0  0  0
   -0.9764    0.0829   28.6745 C   0  0  0  0  0  0  0  0  0  0  0  0
   -1.6548   -1.1537   29.1987 C   0  0  0  0  0  0  0  0  0  0  0  0
   -0.7941   -2.1240   29.8257 N   0  0  0  0  0  0  0  0  0  0  0  0
   -0.4687   -1.9802   31.1267 C   0  0  0  0  0  0  0  0  0  0  0  0
   -0.7297   -0.9945   31.9599 N   0  0  0  0  0  0  0  0  0  0  0  0
   -0.0050   -1.1925   33.1176 N   0  0  0  0  0  0  0  0  0  0  0  0
    0.5462   -2.3810   33.0277 C   0  0  0  0  0  0  0  0  0  0  0  0
    1.2900   -3.1852   33.9278 C   0  0  0  0  0  0  0  0  0  0  0  0
    1.4066   -4.5060   33.6783 C   0  0  0  0  0  0  0  0  0  0  0  0
    0.7966   -5.1088   32.4937 C   0  0  0  0  0  0  0  0  0  0  0  0
    0.2603   -6.4609   32.3582 C   0  0  0  0  0  0  0  0  0  0  0  0
   -0.6040   -6.9429   33.3363 C   0  0  0  0  0  0  0  0  0  0  0  0
   -1.4042   -7.9955   33.1145 N   0  0  0  0  0  0  0  0  0  0  0  0
   -1.3150   -8.5380   31.8901 C   0  0  0  0  0  0  0  0  0  0  0  0
   -0.4623   -8.0727   30.9121 C   0  0  0  0  0  0  0  0  0  0  0  0
    0.3473   -7.0243   31.1236 N   0  0  0  0  0  0  0  0  0  0  0  0
    0.3227   -4.2935   31.5373 C   0  0  0  0  0  0  0  0  0  0  0  0
    0.2001   -2.9519   31.8186 N   0  0  0  0  0  0  0  0  0  0  0  0
   -1.4187    0.6333   27.4676 C   0  0  0  0  0  0  0  0  0  0  0  0
   -0.9626    1.8837   27.0904 C   0  0  0  0  0  0  0  0  0  0  0  0
   -0.0652    2.5963   27.7966 N   0  0  0  0  0  0  0  0  0  0  0  0
    1.0655    2.6566   29.5153 H   0  0  0  0  0  0  0  0  0  0  0  0
    0.3146    0.4856   30.3830 H   0  0  0  0  0  0  0  0  0  0  0  0
   -2.1762   -1.6595   28.3790 H   0  0  0  0  0  0  0  0  0  0  0  0
   -2.4046   -0.8126   29.9179 H   0  0  0  0  0  0  0  0  0  0  0  0
   -0.2835   -2.7219   29.1856 H   0  0  0  0  0  0  0  0  0  0  0  0
    1.6997   -2.7308   34.8227 H   0  0  0  0  0  0  0  0  0  0  0  0
    1.9333   -5.1536   34.3728 H   0  0  0  0  0  0  0  0  0  0  0  0
   -0.7427   -6.4490   34.2931 H   0  0  0  0  0  0  0  0  0  0  0  0
   -1.9342   -9.4011   31.7305 H   0  0  0  0  0  0  0  0  0  0  0  0
   -0.3746   -8.5576   29.9474 H   0  0  0  0  0  0  0  0  0  0  0  0
   -0.1852   -4.6316   30.6399 H   0  0  0  0  0  0  0  0  0  0  0  0
   -2.1326    0.1167   26.8362 H   0  0  0  0  0  0  0  0  0  0  0  0
   -1.3222    2.3613   26.1839 H   0  0  0  0  0  0  0  0  0  0  0  0
  1  2  2  0
  2  3  1  0
  3  4  1  0
  4  5  1  0
  5  6  1  0
  6  7  2  0
  7  8  1  0
  8  9  2  0
  9 10  1  0
 10 11  2  0
 11 12  1  0
 12 13  1  0
 13 14  2  0
 14 15  1  0
 15 16  2  0
 16 17  1  0
 17 18  2  0
 12 19  2  0
 19 20  1  0
  3 21  2  0
 21 22  1  0
 22 23  2  0
 23  1  1  0
 20  6  1  0
 20  9  1  0
 18 13  1  0
  1 24  1  0
  2 25  1  0
  4 26  1  0
  4 27  1  0
  5 28  1  0
 10 29  1  0
 11 30  1  0
 14 31  1  0
 16 32  1  0
 17 33  1  0
 19 34  1  0
 21 35  1  0
 22 36  1  0
M  END
>  <Energy>  (905) 
125.68079791414182

>  <compound_id>  (905) 
4438

>  <target_id>  (905) 
1

>  <reference_id>  (905) 
156

>  <inspiration_ids>  (905) 
[156, 130]

>  <energy_score>  (905) 
-8.164335548177064

>  <distance_score>  (905) 
1.3888314652848337

>  <path>  (905) 
/opt/xchem-fragalysis-2/maxwin/BulkDock/SCRATCH/505735/C4438-P156/C4438-P156.minimised.mol

>  <scratch_subdir>  (905) 
/opt/xchem-fragalysis-2/maxwin/BulkDock/SCRATCH/505735/C4438-P156

>  <fragmenstein_runtime>  (905) 
3.4259884357452393

>  <fragmenstein_outcome>  (905) 
too moved

>  <fragmenstein_mode>  (905) 
expansion

>  <fragmenstein_error>  (905) 


$$$$
C4438-P130
     RDKit          3D

 36 39  0  0  0  0  0  0  0  0999 V2000
    0.2526    2.0239   28.9923 C   0  0  0  0  0  0  0  0  0  0  0  0
   -0.1845    0.7980   29.4634 C   0  0  0  0  0  0  0  0  0  0  0  0
   -1.1243    0.0797   28.7201 C   0  0  0  0  0  0  0  0  0  0  0  0
   -1.8064   -1.1592   29.2369 C   0  0  0  0  0  0  0  0  0  0  0  0
   -0.9408   -2.1457   29.8358 N   0  0  0  0  0  0  0  0  0  0  0  0
   -0.5779   -2.0071   31.1289 C   0  0  0  0  0  0  0  0  0  0  0  0
   -0.8444   -1.0425   31.9845 N   0  0  0  0  0  0  0  0  0  0  0  0
   -0.0795   -1.2350   33.1176 N   0  0  0  0  0  0  0  0  0  0  0  0
    0.5063   -2.4039   32.9933 C   0  0  0  0  0  0  0  0  0  0  0  0
    1.2973   -3.1998   33.8609 C   0  0  0  0  0  0  0  0  0  0  0  0
    1.4495   -4.5119   33.5850 C   0  0  0  0  0  0  0  0  0  0  0  0
    0.8329   -5.1120   32.4026 C   0  0  0  0  0  0  0  0  0  0  0  0
    0.3040   -6.4670   32.2631 C   0  0  0  0  0  0  0  0  0  0  0  0
   -0.5987   -6.9249   33.2182 C   0  0  0  0  0  0  0  0  0  0  0  0
   -1.4194   -7.9548   32.9728 N   0  0  0  0  0  0  0  0  0  0  0  0
   -1.3026   -8.5075   31.7560 C   0  0  0  0  0  0  0  0  0  0  0  0
   -0.4097   -8.0717   30.8037 C   0  0  0  0  0  0  0  0  0  0  0  0
    0.4153   -7.0383   31.0333 N   0  0  0  0  0  0  0  0  0  0  0  0
    0.3097   -4.2958   31.4729 C   0  0  0  0  0  0  0  0  0  0  0  0
    0.1472   -2.9650   31.7835 N   0  0  0  0  0  0  0  0  0  0  0  0
   -1.5767    0.6486   27.5256 C   0  0  0  0  0  0  0  0  0  0  0  0
   -1.1022    1.8933   27.1508 C   0  0  0  0  0  0  0  0  0  0  0  0
   -0.1800    2.5840   27.8470 N   0  0  0  0  0  0  0  0  0  0  0  0
    0.9732    2.6130   29.5518 H   0  0  0  0  0  0  0  0  0  0  0  0
    0.1949    0.4518   30.4152 H   0  0  0  0  0  0  0  0  0  0  0  0
   -2.3394   -1.6512   28.4158 H   0  0  0  0  0  0  0  0  0  0  0  0
   -2.5510   -0.8275   29.9668 H   0  0  0  0  0  0  0  0  0  0  0  0
   -0.3856   -2.6743   29.1707 H   0  0  0  0  0  0  0  0  0  0  0  0
    1.7122   -2.7486   34.7550 H   0  0  0  0  0  0  0  0  0  0  0  0
    2.0103   -5.1559   34.2556 H   0  0  0  0  0  0  0  0  0  0  0  0
   -0.7568   -6.4223   34.1674 H   0  0  0  0  0  0  0  0  0  0  0  0
   -1.9398   -9.3514   31.5798 H   0  0  0  0  0  0  0  0  0  0  0  0
   -0.3091   -8.5676   29.8463 H   0  0  0  0  0  0  0  0  0  0  0  0
   -0.2133   -4.6355   30.5845 H   0  0  0  0  0  0  0  0  0  0  0  0
   -2.3118    0.1507   26.9030 H   0  0  0  0  0  0  0  0  0  0  0  0
   -1.4677    2.3851   26.2543 H   0  0  0  0  0  0  0  0  0  0  0  0
  1  2  2  0
  2  3  1  0
  3  4  1  0
  4  5  1  0
  5  6  1  0
  6  7  2  0
  7  8  1  0
  8  9  2  0
  9 10  1  0
 10 11  2  0
 11 12  1  0
 12 13  1  0
 13 14  2  0
 14 15  1  0
 15 16  2  0
 16 17  1  0
 17 18  2  0
 12 19  2  0
 19 20  1  0
  3 21  2  0
 21 22  1  0
 22 23  2  0
 23  1  1  0
 20  6  1  0
 20  9  1  0
 18 13  1  0
  1 24  1  0
  2 25  1  0
  4 26  1  0
  4 27  1  0
  5 28  1  0
 10 29  1  0
 11 30  1  0
 14 31  1  0
 16 32  1  0
 17 33  1  0
 19 34  1  0
 21 35  1  0
 22 36  1  0
M  END
>  <Energy>  (906) 
126.6063736532264

>  <compound_id>  (906) 
4438

>  <target_id>  (906) 
1

>  <reference_id>  (906) 
130

>  <inspiration_ids>  (906) 
[156, 130]

>  <energy_score>  (906) 
-7.238759809094404

>  <distance_score>  (906) 
1.346688251069773

>  <path>  (906) 
/opt/xchem-fragalysis-2/maxwin/BulkDock/SCRATCH/505735/C4438-P130/C4438-P130.minimised.mol

>  <scratch_subdir>  (906) 
/opt/xchem-fragalysis-2/maxwin/BulkDock/SCRATCH/505735/C4438-P130

>  <fragmenstein_runtime>  (906) 
3.05545973777771

>  <fragmenstein_outcome>  (906) 
too moved

>  <fragmenstein_mode>  (906) 
expansion

>  <fragmenstein_error>  (906) 


$$$$
C4438-P156
     RDKit          3D

 36 39  0  0  0  0  0  0  0  0999 V2000
    0.5615    1.9049   29.1099 C   0  0  0  0  0  0  0  0  0  0  0  0
    0.0421    0.6961   29.5376 C   0  0  0  0  0  0  0  0  0  0  0  0
   -0.9295    0.0653   28.7580 C   0  0  0  0  0  0  0  0  0  0  0  0
   -1.6985   -1.1392   29.2250 C   0  0  0  0  0  0  0  0  0  0  0  0
   -0.9359   -2.1413   29.9297 N   0  0  0  0  0  0  0  0  0  0  0  0
   -0.7290   -1.9893   31.2570 C   0  0  0  0  0  0  0  0  0  0  0  0
   -1.1028   -1.0186   32.0651 N   0  0  0  0  0  0  0  0  0  0  0  0
   -0.4956   -1.2075   33.2912 N   0  0  0  0  0  0  0  0  0  0  0  0
    0.1206   -2.3670   33.2462 C   0  0  0  0  0  0  0  0  0  0  0  0
    0.8195   -3.1453   34.2075 C   0  0  0  0  0  0  0  0  0  0  0  0
    1.0828   -4.4394   33.9300 C   0  0  0  0  0  0  0  0  0  0  0  0
    0.6407   -5.0541   32.6767 C   0  0  0  0  0  0  0  0  0  0  0  0
    0.1825   -6.4316   32.4846 C   0  0  0  0  0  0  0  0  0  0  0  0
   -0.6921   -6.9711   33.4232 C   0  0  0  0  0  0  0  0  0  0  0  0
   -1.4599   -8.0355   33.1494 N   0  0  0  0  0  0  0  0  0  0  0  0
   -1.3196   -8.5396   31.9117 C   0  0  0  0  0  0  0  0  0  0  0  0
   -0.4543   -8.0217   30.9718 C   0  0  0  0  0  0  0  0  0  0  0  0
    0.3211   -6.9581   31.2378 N   0  0  0  0  0  0  0  0  0  0  0  0
    0.1984   -4.2481   31.6972 C   0  0  0  0  0  0  0  0  0  0  0  0
   -0.0619   -2.9289   31.9963 N   0  0  0  0  0  0  0  0  0  0  0  0
   -1.3337    0.6993   27.5778 C   0  0  0  0  0  0  0  0  0  0  0  0
   -0.7729    1.9189   27.2454 C   0  0  0  0  0  0  0  0  0  0  0  0
    0.1812    2.5259   27.9768 N   0  0  0  0  0  0  0  0  0  0  0  0
    1.3095    2.4310   29.6956 H   0  0  0  0  0  0  0  0  0  0  0  0
    0.3797    0.2950   30.4843 H   0  0  0  0  0  0  0  0  0  0  0  0
   -2.4783   -0.7531   29.8841 H   0  0  0  0  0  0  0  0  0  0  0  0
   -2.1731   -1.6268   28.3668 H   0  0  0  0  0  0  0  0  0  0  0  0
   -0.3035   -2.6724   29.3406 H   0  0  0  0  0  0  0  0  0  0  0  0
    1.0967   -2.6894   35.1513 H   0  0  0  0  0  0  0  0  0  0  0  0
    1.5931   -5.0637   34.6578 H   0  0  0  0  0  0  0  0  0  0  0  0
   -0.8687   -6.5100   34.3896 H   0  0  0  0  0  0  0  0  0  0  0  0
   -1.9049   -9.4178   31.7077 H   0  0  0  0  0  0  0  0  0  0  0  0
   -0.3327   -8.4740   29.9945 H   0  0  0  0  0  0  0  0  0  0  0  0
   -0.1978   -4.5963   30.7489 H   0  0  0  0  0  0  0  0  0  0  0  0
   -2.0958    0.2717   26.9348 H   0  0  0  0  0  0  0  0  0  0  0  0
   -1.0906    2.4589   26.3583 H   0  0  0  0  0  0  0  0  0  0  0  0
  1  2  2  0
  2  3  1  0
  3  4  1  0
  4  5  1  0
  5  6  1  0
  6  7  2  0
  7  8  1  0
  8  9  2  0
  9 10  1  0
 10 11  2  0
 11 12  1  0
 12 13  1  0
 13 14  2  0
 14 15  1  0
 15 16  2  0
 16 17  1  0
 17 18  2  0
 12 19  2  0
 19 20  1  0
  3 21  2  0
 21 22  1  0
 22 23  2  0
 23  1  1  0
 20  6  1  0
 20  9  1  0
 18 13  1  0
  1 24  1  0
  2 25  1  0
  4 26  1  0
  4 27  1  0
  5 28  1  0
 10 29  1  0
 11 30  1  0
 14 31  1  0
 16 32  1  0
 17 33  1  0
 19 34  1  0
 21 35  1  0
 22 36  1  0
M  END
>  <Energy>  (907) 
125.67879898548132

>  <compound_id>  (907) 
4438

>  <target_id>  (907) 
1

>  <reference_id>  (907) 
156

>  <inspiration_ids>  (907) 
[156, 131]

>  <energy_score>  (907) 
-8.166334476840461

>  <distance_score>  (907) 
1.3573368506966732

>  <path>  (907) 
/opt/xchem-fragalysis-2/maxwin/BulkDock/SCRATCH/505735/C4438-P156/C4438-P156.minimised.mol

>  <scratch_subdir>  (907) 
/opt/xchem-fragalysis-2/maxwin/BulkDock/SCRATCH/505735/C4438-P156

>  <fragmenstein_runtime>  (907) 
4.04961633682251

>  <fragmenstein_outcome>  (907) 
too moved

>  <fragmenstein_mode>  (907) 
expansion

>  <fragmenstein_error>  (907) 


$$$$
C4438-P131
     RDKit          3D

 36 39  0  0  0  0  0  0  0  0999 V2000
    0.3903    1.8170   29.1755 C   0  0  0  0  0  0  0  0  0  0  0  0
   -0.1827    0.6355   29.6143 C   0  0  0  0  0  0  0  0  0  0  0  0
   -1.1525    0.0147   28.8221 C   0  0  0  0  0  0  0  0  0  0  0  0
   -1.9536   -1.1766   29.2799 C   0  0  0  0  0  0  0  0  0  0  0  0
   -1.1944   -2.2060   29.9578 N   0  0  0  0  0  0  0  0  0  0  0  0
   -0.9375   -2.0535   31.2779 C   0  0  0  0  0  0  0  0  0  0  0  0
   -1.3260   -1.1092   32.1099 N   0  0  0  0  0  0  0  0  0  0  0  0
   -0.6543   -1.2717   33.3059 N   0  0  0  0  0  0  0  0  0  0  0  0
    0.0225   -2.3949   33.2240 C   0  0  0  0  0  0  0  0  0  0  0  0
    0.8040   -3.1394   34.1483 C   0  0  0  0  0  0  0  0  0  0  0  0
    1.1281   -4.4147   33.8487 C   0  0  0  0  0  0  0  0  0  0  0  0
    0.6707   -5.0436   32.6081 C   0  0  0  0  0  0  0  0  0  0  0  0
    0.2383   -6.4330   32.4338 C   0  0  0  0  0  0  0  0  0  0  0  0
   -0.6525   -6.9522   33.3696 C   0  0  0  0  0  0  0  0  0  0  0  0
   -1.4429   -7.9982   33.0924 N   0  0  0  0  0  0  0  0  0  0  0  0
   -1.3024   -8.5122   31.8593 C   0  0  0  0  0  0  0  0  0  0  0  0
   -0.4105   -8.0258   30.9296 C   0  0  0  0  0  0  0  0  0  0  0  0
    0.3822   -6.9733   31.1936 N   0  0  0  0  0  0  0  0  0  0  0  0
    0.1454   -4.2561   31.6539 C   0  0  0  0  0  0  0  0  0  0  0  0
   -0.1813   -2.9569   31.9774 N   0  0  0  0  0  0  0  0  0  0  0  0
   -1.5034    0.6390   27.6208 C   0  0  0  0  0  0  0  0  0  0  0  0
   -0.8930    1.8329   27.2786 C   0  0  0  0  0  0  0  0  0  0  0  0
    0.0646    2.4241   28.0188 N   0  0  0  0  0  0  0  0  0  0  0  0
    1.1383    2.3310   29.7721 H   0  0  0  0  0  0  0  0  0  0  0  0
    0.1173    0.2489   30.5791 H   0  0  0  0  0  0  0  0  0  0  0  0
   -2.7390   -0.7993   29.9404 H   0  0  0  0  0  0  0  0  0  0  0  0
   -2.4382   -1.6444   28.4160 H   0  0  0  0  0  0  0  0  0  0  0  0
   -0.5383   -2.6824   29.3464 H   0  0  0  0  0  0  0  0  0  0  0  0
    1.0925   -2.6753   35.0847 H   0  0  0  0  0  0  0  0  0  0  0  0
    1.7002   -5.0161   34.5493 H   0  0  0  0  0  0  0  0  0  0  0  0
   -0.8323   -6.4794   34.3299 H   0  0  0  0  0  0  0  0  0  0  0  0
   -1.9191   -9.3643   31.6468 H   0  0  0  0  0  0  0  0  0  0  0  0
   -0.2891   -8.4912   29.9592 H   0  0  0  0  0  0  0  0  0  0  0  0
   -0.2727   -4.6203   30.7212 H   0  0  0  0  0  0  0  0  0  0  0  0
   -2.2585    0.2220   26.9633 H   0  0  0  0  0  0  0  0  0  0  0  0
   -1.1718    2.3631   26.3728 H   0  0  0  0  0  0  0  0  0  0  0  0
  1  2  2  0
  2  3  1  0
  3  4  1  0
  4  5  1  0
  5  6  1  0
  6  7  2  0
  7  8  1  0
  8  9  2  0
  9 10  1  0
 10 11  2  0
 11 12  1  0
 12 13  1  0
 13 14  2  0
 14 15  1  0
 15 16  2  0
 16 17  1  0
 17 18  2  0
 12 19  2  0
 19 20  1  0
  3 21  2  0
 21 22  1  0
 22 23  2  0
 23  1  1  0
 20  6  1  0
 20  9  1  0
 18 13  1  0
  1 24  1  0
  2 25  1  0
  4 26  1  0
  4 27  1  0
  5 28  1  0
 10 29  1  0
 11 30  1  0
 14 31  1  0
 16 32  1  0
 17 33  1  0
 19 34  1  0
 21 35  1  0
 22 36  1  0
M  END
>  <Energy>  (908) 
126.75613601907722

>  <compound_id>  (908) 
4438

>  <target_id>  (908) 
1

>  <reference_id>  (908) 
131

>  <inspiration_ids>  (908) 
[156, 131]

>  <energy_score>  (908) 
-7.088997443242533

>  <distance_score>  (908) 
1.2964510278135701

>  <path>  (908) 
/opt/xchem-fragalysis-2/maxwin/BulkDock/SCRATCH/505735/C4438-P131/C4438-P131.minimised.mol

>  <scratch_subdir>  (908) 
/opt/xchem-fragalysis-2/maxwin/BulkDock/SCRATCH/505735/C4438-P131

>  <fragmenstein_runtime>  (908) 
3.7755565643310547

>  <fragmenstein_outcome>  (908) 
too moved

>  <fragmenstein_mode>  (908) 
expansion

>  <fragmenstein_error>  (908) 


$$$$
C4440-P156
     RDKit          3D

 50 54  0  0  0  0  0  0  0  0999 V2000
   -0.5779   -1.0503   33.4718 O   0  0  0  0  0  0  0  0  0  0  0  0
   -1.3838   -2.1168   32.9069 S   0  0  0  0  0  0  0  0  0  0  0  0
   -2.8181   -2.1032   33.1216 O   0  0  0  0  0  0  0  0  0  0  0  0
   -0.6691   -3.6194   33.5538 C   0  0  0  0  0  0  0  0  0  0  0  0
   -1.3097   -4.8166   33.5128 C   0  0  0  0  0  0  0  0  0  0  0  0
   -1.0150   -5.6155   32.2906 C   0  0  0  0  0  0  0  0  0  0  0  0
   -1.5375   -6.9623   32.0314 N   0  0  0  0  0  0  0  0  0  0  0  0
   -0.5768   -7.4482   30.9236 N   0  0  0  0  0  0  0  0  0  0  0  0
    0.6511   -6.6749   31.2329 C   0  0  0  0  0  0  0  0  0  0  0  0
    1.2985   -5.9330   30.0655 C   0  0  0  0  0  0  0  0  0  0  0  0
    2.4841   -5.0250   30.5043 C   0  0  0  0  0  0  0  0  0  0  0  0
    2.6374   -4.7734   32.0420 C   0  0  0  0  0  0  0  0  0  0  0  0
    3.4786   -3.5693   32.3911 C   0  0  0  0  0  0  0  0  0  0  0  0
    3.8804   -3.3729   33.7143 C   0  0  0  0  0  0  0  0  0  0  0  0
    4.4023   -2.2113   34.1595 N   0  0  0  0  0  0  0  0  0  0  0  0
    4.5448   -1.2506   33.2244 C   0  0  0  0  0  0  0  0  0  0  0  0
    4.1867   -1.4470   31.9035 C   0  0  0  0  0  0  0  0  0  0  0  0
    3.6419   -2.6015   31.4604 N   0  0  0  0  0  0  0  0  0  0  0  0
    1.2606   -4.6918   32.6388 C   0  0  0  0  0  0  0  0  0  0  0  0
    0.7730   -3.6842   33.3873 C   0  0  0  0  0  0  0  0  0  0  0  0
    0.4065   -5.6955   32.2411 N   0  0  0  0  0  0  0  0  0  0  0  0
   -1.2107   -1.9212   31.1856 N   0  0  0  0  0  0  0  0  0  0  0  0
   -1.5484   -0.4854   30.7944 C   0  0  0  0  0  0  0  0  0  0  0  0
   -1.4296   -0.2492   29.2751 C   0  0  0  0  0  0  0  0  0  0  0  0
   -0.1225   -0.6083   28.7144 N   0  0  0  0  0  0  0  0  0  0  0  0
    0.1444   -2.0036   29.0757 C   0  0  0  0  0  0  0  0  0  0  0  0
    0.1158   -2.2415   30.5979 C   0  0  0  0  0  0  0  0  0  0  0  0
   -1.0986   -5.4716   34.3633 H   0  0  0  0  0  0  0  0  0  0  0  0
   -1.3543   -4.9954   31.4490 H   0  0  0  0  0  0  0  0  0  0  0  0
   -1.3504   -7.5129   32.8740 H   0  0  0  0  0  0  0  0  0  0  0  0
   -0.9292   -7.1180   30.0202 H   0  0  0  0  0  0  0  0  0  0  0  0
    1.3411   -7.3588   31.6843 H   0  0  0  0  0  0  0  0  0  0  0  0
    0.5501   -5.2971   29.5752 H   0  0  0  0  0  0  0  0  0  0  0  0
    1.6536   -6.6320   29.3060 H   0  0  0  0  0  0  0  0  0  0  0  0
    2.3750   -4.0794   29.9596 H   0  0  0  0  0  0  0  0  0  0  0  0
    3.4199   -5.4462   30.1184 H   0  0  0  0  0  0  0  0  0  0  0  0
    3.1239   -5.6463   32.4890 H   0  0  0  0  0  0  0  0  0  0  0  0
    3.7332   -4.1321   34.4763 H   0  0  0  0  0  0  0  0  0  0  0  0
    4.9630   -0.3101   33.5649 H   0  0  0  0  0  0  0  0  0  0  0  0
    4.3130   -0.6644   31.1632 H   0  0  0  0  0  0  0  0  0  0  0  0
    1.3310   -2.8094   33.7055 H   0  0  0  0  0  0  0  0  0  0  0  0
   -0.8713    0.2076   31.3083 H   0  0  0  0  0  0  0  0  0  0  0  0
   -2.5739   -0.2659   31.1070 H   0  0  0  0  0  0  0  0  0  0  0  0
   -2.1848   -0.8461   28.7553 H   0  0  0  0  0  0  0  0  0  0  0  0
   -1.6301    0.8049   29.0566 H   0  0  0  0  0  0  0  0  0  0  0  0
   -0.1908   -0.5535   27.6939 H   0  0  0  0  0  0  0  0  0  0  0  0
    1.1335   -2.2775   28.6930 H   0  0  0  0  0  0  0  0  0  0  0  0
   -0.5829   -2.6635   28.5857 H   0  0  0  0  0  0  0  0  0  0  0  0
    0.2886   -3.3015   30.7317 H   0  0  0  0  0  0  0  0  0  0  0  0
    0.9062   -1.6649   31.0891 H   0  0  0  0  0  0  0  0  0  0  0  0
  1  2  2  0
  2  3  2  0
  2  4  1  0
  4  5  2  0
  5  6  1  0
  6  7  1  0
  7  8  1  0
  8  9  1  0
  9 10  1  0
 10 11  1  0
 11 12  1  0
 12 13  1  0
 13 14  2  0
 14 15  1  0
 15 16  2  0
 16 17  1  0
 17 18  2  0
 12 19  1  0
 19 20  2  0
 19 21  1  0
  2 22  1  0
 22 23  1  0
 23 24  1  0
 24 25  1  0
 25 26  1  0
 26 27  1  0
 20  4  1  0
 27 22  1  0
 21  6  1  0
 21  9  1  0
 18 13  1  0
  5 28  1  0
  6 29  1  0
  7 30  1  0
  8 31  1  0
  9 32  1  0
 10 33  1  0
 10 34  1  0
 11 35  1  0
 11 36  1  0
 12 37  1  0
 14 38  1  0
 16 39  1  0
 17 40  1  0
 20 41  1  0
 23 42  1  0
 23 43  1  0
 24 44  1  0
 24 45  1  0
 25 46  1  0
 26 47  1  0
 26 48  1  0
 27 49  1  0
 27 50  1  0
M  END
>  <Energy>  (909) 
177.02587018393393

>  <compound_id>  (909) 
4440

>  <target_id>  (909) 
1

>  <reference_id>  (909) 
156

>  <inspiration_ids>  (909) 
[156, 134]

>  <energy_score>  (909) 
-0.4695069093634743

>  <distance_score>  (909) 
1.5720369863481147

>  <path>  (909) 
/opt/xchem-fragalysis-2/maxwin/BulkDock/SCRATCH/505735/C4440-P156/C4440-P156.minimised.mol

>  <scratch_subdir>  (909) 
/opt/xchem-fragalysis-2/maxwin/BulkDock/SCRATCH/505735/C4440-P156

>  <fragmenstein_runtime>  (909) 
3.362917184829712

>  <fragmenstein_outcome>  (909) 
too moved

>  <fragmenstein_mode>  (909) 
expansion

>  <fragmenstein_error>  (909) 


$$$$
C4440-P134
     RDKit          3D

 50 54  0  0  0  0  0  0  0  0999 V2000
   -0.2798   -0.8461   33.5071 O   0  0  0  0  0  0  0  0  0  0  0  0
   -1.2705   -1.8972   33.3418 S   0  0  0  0  0  0  0  0  0  0  0  0
   -2.5808   -1.6963   33.9310 O   0  0  0  0  0  0  0  0  0  0  0  0
   -0.4964   -3.3533   34.0301 C   0  0  0  0  0  0  0  0  0  0  0  0
   -1.1148   -4.5471   34.2384 C   0  0  0  0  0  0  0  0  0  0  0  0
   -1.1038   -5.4542   33.0353 C   0  0  0  0  0  0  0  0  0  0  0  0
   -1.5801   -6.8422   33.0088 N   0  0  0  0  0  0  0  0  0  0  0  0
   -0.8787   -7.3864   31.7158 N   0  0  0  0  0  0  0  0  0  0  0  0
    0.3495   -6.5682   31.6863 C   0  0  0  0  0  0  0  0  0  0  0  0
    0.7628   -5.9584   30.3477 C   0  0  0  0  0  0  0  0  0  0  0  0
    1.9562   -4.9537   30.4918 C   0  0  0  0  0  0  0  0  0  0  0  0
    2.4065   -4.6393   31.9624 C   0  0  0  0  0  0  0  0  0  0  0  0
    3.3611   -3.4878   32.1319 C   0  0  0  0  0  0  0  0  0  0  0  0
    3.9754   -3.2938   33.3736 C   0  0  0  0  0  0  0  0  0  0  0  0
    4.6042   -2.1511   33.7145 N   0  0  0  0  0  0  0  0  0  0  0  0
    4.6327   -1.2094   32.7508 C   0  0  0  0  0  0  0  0  0  0  0  0
    4.0722   -1.4115   31.5016 C   0  0  0  0  0  0  0  0  0  0  0  0
    3.4261   -2.5497   31.1644 N   0  0  0  0  0  0  0  0  0  0  0  0
    1.1760   -4.4833   32.7903 C   0  0  0  0  0  0  0  0  0  0  0  0
    0.8828   -3.4577   33.6039 C   0  0  0  0  0  0  0  0  0  0  0  0
    0.2517   -5.4742   32.5956 N   0  0  0  0  0  0  0  0  0  0  0  0
   -1.5408   -1.9042   31.6303 N   0  0  0  0  0  0  0  0  0  0  0  0
   -1.8672   -0.5036   31.1194 C   0  0  0  0  0  0  0  0  0  0  0  0
   -0.7924    0.0846   30.1731 C   0  0  0  0  0  0  0  0  0  0  0  0
   -0.4822   -0.7327   28.9941 N   0  0  0  0  0  0  0  0  0  0  0  0
   -0.7274   -2.1516   29.2689 C   0  0  0  0  0  0  0  0  0  0  0  0
   -0.5159   -2.5209   30.7521 C   0  0  0  0  0  0  0  0  0  0  0  0
   -0.7181   -5.1426   35.0642 H   0  0  0  0  0  0  0  0  0  0  0  0
   -1.6729   -4.9263   32.2655 H   0  0  0  0  0  0  0  0  0  0  0  0
   -1.1640   -7.3230   33.8126 H   0  0  0  0  0  0  0  0  0  0  0  0
   -1.4567   -7.1157   30.9203 H   0  0  0  0  0  0  0  0  0  0  0  0
    1.1417   -7.1898   32.0700 H   0  0  0  0  0  0  0  0  0  0  0  0
   -0.0846   -5.4277   29.9000 H   0  0  0  0  0  0  0  0  0  0  0  0
    1.0197   -6.7423   29.6363 H   0  0  0  0  0  0  0  0  0  0  0  0
    1.6696   -4.0288   29.9781 H   0  0  0  0  0  0  0  0  0  0  0  0
    2.8076   -5.3215   29.9085 H   0  0  0  0  0  0  0  0  0  0  0  0
    2.8967   -5.5123   32.3913 H   0  0  0  0  0  0  0  0  0  0  0  0
    3.9137   -4.0358   34.1640 H   0  0  0  0  0  0  0  0  0  0  0  0
    5.1289   -0.2796   33.0046 H   0  0  0  0  0  0  0  0  0  0  0  0
    4.1117   -0.6442   30.7358 H   0  0  0  0  0  0  0  0  0  0  0  0
    1.5179   -2.5992   33.7945 H   0  0  0  0  0  0  0  0  0  0  0  0
   -2.0336    0.1871   31.9514 H   0  0  0  0  0  0  0  0  0  0  0  0
   -2.8160   -0.5686   30.5899 H   0  0  0  0  0  0  0  0  0  0  0  0
   -1.1044    1.0699   29.8194 H   0  0  0  0  0  0  0  0  0  0  0  0
    0.1348    0.2361   30.7389 H   0  0  0  0  0  0  0  0  0  0  0  0
   -1.0629   -0.4568   28.1979 H   0  0  0  0  0  0  0  0  0  0  0  0
   -0.0566   -2.7475   28.6419 H   0  0  0  0  0  0  0  0  0  0  0  0
   -1.7525   -2.4042   28.9771 H   0  0  0  0  0  0  0  0  0  0  0  0
   -0.6375   -3.5954   30.8320 H   0  0  0  0  0  0  0  0  0  0  0  0
    0.4896   -2.2276   31.0657 H   0  0  0  0  0  0  0  0  0  0  0  0
  1  2  2  0
  2  3  2  0
  2  4  1  0
  4  5  2  0
  5  6  1  0
  6  7  1  0
  7  8  1  0
  8  9  1  0
  9 10  1  0
 10 11  1  0
 11 12  1  0
 12 13  1  0
 13 14  2  0
 14 15  1  0
 15 16  2  0
 16 17  1  0
 17 18  2  0
 12 19  1  0
 19 20  2  0
 19 21  1  0
  2 22  1  0
 22 23  1  0
 23 24  1  0
 24 25  1  0
 25 26  1  0
 26 27  1  0
 20  4  1  0
 27 22  1  0
 21  6  1  0
 21  9  1  0
 18 13  1  0
  5 28  1  0
  6 29  1  0
  7 30  1  0
  8 31  1  0
  9 32  1  0
 10 33  1  0
 10 34  1  0
 11 35  1  0
 11 36  1  0
 12 37  1  0
 14 38  1  0
 16 39  1  0
 17 40  1  0
 20 41  1  0
 23 42  1  0
 23 43  1  0
 24 44  1  0
 24 45  1  0
 25 46  1  0
 26 47  1  0
 26 48  1  0
 27 49  1  0
 27 50  1  0
M  END
>  <Energy>  (910) 
189.38477706930982

>  <compound_id>  (910) 
4440

>  <target_id>  (910) 
1

>  <reference_id>  (910) 
134

>  <inspiration_ids>  (910) 
[156, 134]

>  <energy_score>  (910) 
11.889399976009827

>  <distance_score>  (910) 
1.592304463979974

>  <path>  (910) 
/opt/xchem-fragalysis-2/maxwin/BulkDock/SCRATCH/505735/C4440-P134/C4440-P134.minimised.mol

>  <scratch_subdir>  (910) 
/opt/xchem-fragalysis-2/maxwin/BulkDock/SCRATCH/505735/C4440-P134

>  <fragmenstein_runtime>  (910) 
3.1537857055664062

>  <fragmenstein_outcome>  (910) 
too moved

>  <fragmenstein_mode>  (910) 
expansion

>  <fragmenstein_error>  (910) 


$$$$
C3853-P156
     RDKit          3D

 32 32  0  0  0  0  0  0  0  0999 V2000
    3.5591   -4.2932   33.0869 C   0  0  0  0  0  0  0  0  0  0  0  0
    3.2937   -3.4879   31.8148 C   0  0  0  0  0  0  0  0  0  0  0  0
    1.8230   -3.1149   31.5377 C   0  0  0  0  0  0  0  0  0  0  0  0
    0.8625   -4.2008   31.9156 C   0  0  0  0  0  0  0  0  0  0  0  0
    0.7788   -5.4082   31.2260 C   0  0  0  0  0  0  0  0  0  0  0  0
    0.2491   -6.5121   31.8892 C   0  0  0  0  0  0  0  0  0  0  0  0
   -0.1470   -6.3528   33.2195 C   0  0  0  0  0  0  0  0  0  0  0  0
    0.1234   -7.3774   34.1551 N   0  0  0  0  0  0  0  0  0  0  0  0
    1.5209   -7.4214   34.5915 N   0  0  0  0  0  0  0  0  0  0  0  0
    1.6261   -6.6730   35.8398 C   0  0  0  0  0  0  0  0  0  0  0  0
    3.0457   -6.4527   36.0160 N   0  0  0  0  0  0  0  0  0  0  0  0
   -0.3195   -5.1440   33.7633 N   0  0  0  0  0  0  0  0  0  0  0  0
    0.1894   -4.0926   33.1206 C   0  0  0  0  0  0  0  0  0  0  0  0
    4.2660   -1.9895   31.8926 S   0  0  0  0  0  0  0  0  0  0  0  0
    3.9147   -1.2733   33.1016 O   0  0  0  0  0  0  0  0  0  0  0  0
    5.6384   -2.3126   31.5598 O   0  0  0  0  0  0  0  0  0  0  0  0
    3.7499   -1.0788   30.6929 F   0  0  0  0  0  0  0  0  0  0  0  0
    3.1274   -3.8090   33.9690 H   0  0  0  0  0  0  0  0  0  0  0  0
    3.1516   -5.3016   33.0052 H   0  0  0  0  0  0  0  0  0  0  0  0
    4.6347   -4.4010   33.2660 H   0  0  0  0  0  0  0  0  0  0  0  0
    3.6819   -4.0544   30.9591 H   0  0  0  0  0  0  0  0  0  0  0  0
    1.7006   -2.8791   30.4724 H   0  0  0  0  0  0  0  0  0  0  0  0
    1.5510   -2.1911   32.0650 H   0  0  0  0  0  0  0  0  0  0  0  0
    1.2449   -5.5327   30.2530 H   0  0  0  0  0  0  0  0  0  0  0  0
    0.3398   -7.4995   31.4534 H   0  0  0  0  0  0  0  0  0  0  0  0
   -0.2924   -8.2552   33.8561 H   0  0  0  0  0  0  0  0  0  0  0  0
    2.0799   -6.8476   33.9556 H   0  0  0  0  0  0  0  0  0  0  0  0
    1.2155   -7.2499   36.6751 H   0  0  0  0  0  0  0  0  0  0  0  0
    1.1249   -5.7017   35.8055 H   0  0  0  0  0  0  0  0  0  0  0  0
    3.4657   -7.3590   36.2167 H   0  0  0  0  0  0  0  0  0  0  0  0
    3.1715   -5.9054   36.8671 H   0  0  0  0  0  0  0  0  0  0  0  0
    0.1432   -3.1604   33.6784 H   0  0  0  0  0  0  0  0  0  0  0  0
  1  2  1  0
  2  3  1  0
  3  4  1  0
  4  5  2  0
  5  6  1  0
  6  7  2  0
  7  8  1  0
  8  9  1  0
  9 10  1  0
 10 11  1  0
  7 12  1  0
 12 13  2  0
  2 14  1  0
 14 15  2  0
 14 16  2  0
 14 17  1  0
 13  4  1  0
  1 18  1  0
  1 19  1  0
  1 20  1  0
  2 21  1  0
  3 22  1  0
  3 23  1  0
  5 24  1  0
  6 25  1  0
  8 26  1  0
  9 27  1  0
 10 28  1  0
 10 29  1  0
 11 30  1  0
 11 31  1  0
 13 32  1  0
M  END
>  <Energy>  (911) 
6.7623027341465223

>  <compound_id>  (911) 
3853

>  <target_id>  (911) 
1

>  <reference_id>  (911) 
156

>  <inspiration_ids>  (911) 
[156, 140]

>  <energy_score>  (911) 
-23.996682436649706

>  <distance_score>  (911) 
1.5182532617980589

>  <path>  (911) 
/opt/xchem-fragalysis-2/maxwin/BulkDock/SCRATCH/505735/C3853-P156/C3853-P156.minimised.mol

>  <scratch_subdir>  (911) 
/opt/xchem-fragalysis-2/maxwin/BulkDock/SCRATCH/505735/C3853-P156

>  <fragmenstein_runtime>  (911) 
5.381604909896851

>  <fragmenstein_outcome>  (911) 
too moved

>  <fragmenstein_mode>  (911) 
expansion

>  <fragmenstein_error>  (911) 


$$$$
C3853-P140
     RDKit          3D

 32 32  0  0  0  0  0  0  0  0999 V2000
    3.5994   -4.2178   33.0373 C   0  0  0  0  0  0  0  0  0  0  0  0
    3.2668   -3.4487   31.7591 C   0  0  0  0  0  0  0  0  0  0  0  0
    1.7805   -3.1059   31.5212 C   0  0  0  0  0  0  0  0  0  0  0  0
    0.8442   -4.1517   32.0436 C   0  0  0  0  0  0  0  0  0  0  0  0
    0.6611   -5.3854   31.4239 C   0  0  0  0  0  0  0  0  0  0  0  0
    0.1749   -6.4429   32.1894 C   0  0  0  0  0  0  0  0  0  0  0  0
   -0.0651   -6.2182   33.5481 C   0  0  0  0  0  0  0  0  0  0  0  0
    0.2442   -7.2122   34.4975 N   0  0  0  0  0  0  0  0  0  0  0  0
    1.6876   -7.3666   34.7372 N   0  0  0  0  0  0  0  0  0  0  0  0
    1.9823   -6.9664   36.1064 C   0  0  0  0  0  0  0  0  0  0  0  0
    2.2284   -5.5464   36.0460 N   0  0  0  0  0  0  0  0  0  0  0  0
   -0.1174   -4.9840   34.0660 N   0  0  0  0  0  0  0  0  0  0  0  0
    0.3182   -3.9741   33.3123 C   0  0  0  0  0  0  0  0  0  0  0  0
    4.2176   -1.9341   31.7737 S   0  0  0  0  0  0  0  0  0  0  0  0
    3.9037   -1.2048   32.9852 O   0  0  0  0  0  0  0  0  0  0  0  0
    5.5800   -2.2418   31.3895 O   0  0  0  0  0  0  0  0  0  0  0  0
    3.6381   -1.0511   30.5822 F   0  0  0  0  0  0  0  0  0  0  0  0
    3.2320   -3.6974   33.9273 H   0  0  0  0  0  0  0  0  0  0  0  0
    3.1761   -5.2225   33.0153 H   0  0  0  0  0  0  0  0  0  0  0  0
    4.6830   -4.3329   33.1534 H   0  0  0  0  0  0  0  0  0  0  0  0
    3.6334   -4.0270   30.9019 H   0  0  0  0  0  0  0  0  0  0  0  0
    1.6075   -2.9673   30.4458 H   0  0  0  0  0  0  0  0  0  0  0  0
    1.5244   -2.1382   31.9725 H   0  0  0  0  0  0  0  0  0  0  0  0
    1.0147   -5.5652   30.4131 H   0  0  0  0  0  0  0  0  0  0  0  0
    0.1795   -7.4492   31.7906 H   0  0  0  0  0  0  0  0  0  0  0  0
   -0.2901   -8.0697   34.3384 H   0  0  0  0  0  0  0  0  0  0  0  0
    2.1773   -6.6359   34.2112 H   0  0  0  0  0  0  0  0  0  0  0  0
    2.8903   -7.4748   36.4435 H   0  0  0  0  0  0  0  0  0  0  0  0
    1.1758   -7.2176   36.8047 H   0  0  0  0  0  0  0  0  0  0  0  0
    2.2821   -5.1916   36.9993 H   0  0  0  0  0  0  0  0  0  0  0  0
    1.3557   -5.1454   35.6732 H   0  0  0  0  0  0  0  0  0  0  0  0
    0.3575   -3.0158   33.8251 H   0  0  0  0  0  0  0  0  0  0  0  0
  1  2  1  0
  2  3  1  0
  3  4  1  0
  4  5  2  0
  5  6  1  0
  6  7  2  0
  7  8  1  0
  8  9  1  0
  9 10  1  0
 10 11  1  0
  7 12  1  0
 12 13  2  0
  2 14  1  0
 14 15  2  0
 14 16  2  0
 14 17  1  0
 13  4  1  0
  1 18  1  0
  1 19  1  0
  1 20  1  0
  2 21  1  0
  3 22  1  0
  3 23  1  0
  5 24  1  0
  6 25  1  0
  8 26  1  0
  9 27  1  0
 10 28  1  0
 10 29  1  0
 11 30  1  0
 11 31  1  0
 13 32  1  0
M  END
>  <Energy>  (912) 
4.8939760117874052

>  <compound_id>  (912) 
3853

>  <target_id>  (912) 
1

>  <reference_id>  (912) 
140

>  <inspiration_ids>  (912) 
[156, 140]

>  <energy_score>  (912) 
-25.865009159007485

>  <distance_score>  (912) 
1.6719993765252663

>  <path>  (912) 
/opt/xchem-fragalysis-2/maxwin/BulkDock/SCRATCH/505735/C3853-P140/C3853-P140.minimised.mol

>  <scratch_subdir>  (912) 
/opt/xchem-fragalysis-2/maxwin/BulkDock/SCRATCH/505735/C3853-P140

>  <fragmenstein_runtime>  (912) 
4.6242828369140625

>  <fragmenstein_outcome>  (912) 
too moved

>  <fragmenstein_mode>  (912) 
expansion

>  <fragmenstein_error>  (912) 


$$$$
C4443-P156
     RDKit          3D

 43 46  0  0  0  0  0  0  0  0999 V2000
   -1.5326   -7.9833   35.2735 N   0  0  0  0  0  0  0  0  0  0  0  0
   -1.3234   -7.7338   33.9624 C   0  0  0  0  0  0  0  0  0  0  0  0
   -1.7244   -8.4713   32.9490 N   0  0  0  0  0  0  0  0  0  0  0  0
   -1.3495   -7.8710   31.7809 N   0  0  0  0  0  0  0  0  0  0  0  0
   -0.7483   -6.7542   32.1103 C   0  0  0  0  0  0  0  0  0  0  0  0
   -0.3183   -5.6629   31.3403 C   0  0  0  0  0  0  0  0  0  0  0  0
    0.1534   -4.5667   31.9664 C   0  0  0  0  0  0  0  0  0  0  0  0
    0.2174   -3.2839   31.2109 C   0  0  0  0  0  0  0  0  0  0  0  0
    1.4018   -3.3629   30.3943 N   0  0  0  0  0  0  0  0  0  0  0  0
    1.2601   -2.7838   28.8531 S   0  0  0  0  0  0  0  0  0  0  0  0
    2.5626   -2.2534   28.5178 O   0  0  0  0  0  0  0  0  0  0  0  0
    0.0646   -1.9783   28.7638 O   0  0  0  0  0  0  0  0  0  0  0  0
    1.0185   -4.3164   27.9095 C   0  0  0  0  0  0  0  0  0  0  0  0
    2.2567   -4.8174   27.2282 C   0  0  0  0  0  0  0  0  0  0  0  0
    2.2254   -5.3162   25.7953 C   0  0  0  0  0  0  0  0  0  0  0  0
    0.7797   -5.3412   24.8234 C   0  0  0  0  0  0  0  0  0  0  0  0
    0.5920   -4.9420   23.5261 O   0  0  0  0  0  0  0  0  0  0  0  0
   -0.6255   -5.1965   25.6189 C   0  0  0  0  0  0  0  0  0  0  0  0
   -0.4043   -4.5419   27.2938 C   0  0  0  0  0  0  0  0  0  0  0  0
    0.4875   -4.5633   33.4014 C   0  0  0  0  0  0  0  0  0  0  0  0
    1.3821   -3.5518   34.0034 C   0  0  0  0  0  0  0  0  0  0  0  0
    1.0988   -2.8817   35.1873 C   0  0  0  0  0  0  0  0  0  0  0  0
    1.9199   -1.9367   35.7084 N   0  0  0  0  0  0  0  0  0  0  0  0
    3.0386   -1.6763   34.9951 C   0  0  0  0  0  0  0  0  0  0  0  0
    3.3275   -2.3308   33.8124 C   0  0  0  0  0  0  0  0  0  0  0  0
    2.5102   -3.2753   33.2903 N   0  0  0  0  0  0  0  0  0  0  0  0
    0.0068   -5.5898   34.1350 C   0  0  0  0  0  0  0  0  0  0  0  0
   -0.6543   -6.6332   33.4867 N   0  0  0  0  0  0  0  0  0  0  0  0
   -0.8360   -7.6856   35.9496 H   0  0  0  0  0  0  0  0  0  0  0  0
   -1.7461   -8.9803   35.4114 H   0  0  0  0  0  0  0  0  0  0  0  0
   -0.5103   -5.6766   30.2743 H   0  0  0  0  0  0  0  0  0  0  0  0
   -0.7070   -3.2015   30.6268 H   0  0  0  0  0  0  0  0  0  0  0  0
    0.2491   -2.3976   31.8518 H   0  0  0  0  0  0  0  0  0  0  0  0
    2.2798   -3.1301   30.8622 H   0  0  0  0  0  0  0  0  0  0  0  0
    3.2335   -4.6094   27.6670 H   0  0  0  0  0  0  0  0  0  0  0  0
    3.2295   -5.4695   25.4026 H   0  0  0  0  0  0  0  0  0  0  0  0
    0.6940   -5.6551   22.8795 H   0  0  0  0  0  0  0  0  0  0  0  0
   -1.5390   -5.4289   25.0897 H   0  0  0  0  0  0  0  0  0  0  0  0
   -1.1935   -4.1509   27.9071 H   0  0  0  0  0  0  0  0  0  0  0  0
    0.1925   -3.0688   35.7536 H   0  0  0  0  0  0  0  0  0  0  0  0
    3.6997   -0.9201   35.4039 H   0  0  0  0  0  0  0  0  0  0  0  0
    4.2279   -2.1105   33.2495 H   0  0  0  0  0  0  0  0  0  0  0  0
    0.1436   -5.6894   35.2041 H   0  0  0  0  0  0  0  0  0  0  0  0
  1  2  1  0
  2  3  2  0
  3  4  1  0
  4  5  2  0
  5  6  1  0
  6  7  2  0
  7  8  1  0
  8  9  1  0
  9 10  1  0
 10 11  2  0
 10 12  2  0
 10 13  1  0
 13 14  2  0
 14 15  1  0
 15 16  2  0
 16 17  1  0
 16 18  1  0
 18 19  2  0
  7 20  1  0
 20 21  1  0
 21 22  2  0
 22 23  1  0
 23 24  2  0
 24 25  1  0
 25 26  2  0
 20 27  2  0
 27 28  1  0
 28  2  1  0
 28  5  1  0
 19 13  1  0
 26 21  1  0
  1 29  1  0
  1 30  1  0
  6 31  1  0
  8 32  1  0
  8 33  1  0
  9 34  1  0
 14 35  1  0
 15 36  1  0
 17 37  1  0
 18 38  1  0
 19 39  1  0
 22 40  1  0
 24 41  1  0
 25 42  1  0
 27 43  1  0
M  END
>  <Energy>  (913) 
184.25332123542171

>  <compound_id>  (913) 
4443

>  <target_id>  (913) 
1

>  <reference_id>  (913) 
156

>  <inspiration_ids>  (913) 
[156, 147]

>  <energy_score>  (913) 
92.27361966021186

>  <distance_score>  (913) 
1.360922065126284

>  <path>  (913) 
/opt/xchem-fragalysis-2/maxwin/BulkDock/SCRATCH/505735/C4443-P156/C4443-P156.minimised.mol

>  <scratch_subdir>  (913) 
/opt/xchem-fragalysis-2/maxwin/BulkDock/SCRATCH/505735/C4443-P156

>  <fragmenstein_runtime>  (913) 
17.183874130249023

>  <fragmenstein_outcome>  (913) 
too moved

>  <fragmenstein_mode>  (913) 
expansion

>  <fragmenstein_error>  (913) 


$$$$
C4443-P147
     RDKit          3D

 43 46  0  0  0  0  0  0  0  0999 V2000
   -0.8500   -7.8918   35.2851 N   0  0  0  0  0  0  0  0  0  0  0  0
   -0.9375   -7.5346   33.9905 C   0  0  0  0  0  0  0  0  0  0  0  0
   -1.4920   -8.2127   33.0083 N   0  0  0  0  0  0  0  0  0  0  0  0
   -1.3481   -7.5064   31.8456 N   0  0  0  0  0  0  0  0  0  0  0  0
   -0.7081   -6.4038   32.1517 C   0  0  0  0  0  0  0  0  0  0  0  0
   -0.3662   -5.2721   31.3981 C   0  0  0  0  0  0  0  0  0  0  0  0
    0.2562   -4.2375   31.9965 C   0  0  0  0  0  0  0  0  0  0  0  0
    0.3830   -2.9591   31.2430 C   0  0  0  0  0  0  0  0  0  0  0  0
    1.5044   -3.1543   30.3536 N   0  0  0  0  0  0  0  0  0  0  0  0
    1.3253   -2.6043   28.8061 S   0  0  0  0  0  0  0  0  0  0  0  0
    2.6140   -2.0616   28.4388 O   0  0  0  0  0  0  0  0  0  0  0  0
    0.1163   -1.8181   28.7227 O   0  0  0  0  0  0  0  0  0  0  0  0
    1.0831   -4.1463   27.8813 C   0  0  0  0  0  0  0  0  0  0  0  0
    2.3116   -4.6327   27.1574 C   0  0  0  0  0  0  0  0  0  0  0  0
    2.2729   -5.1722   25.7375 C   0  0  0  0  0  0  0  0  0  0  0  0
    0.8576   -5.2413   24.8440 C   0  0  0  0  0  0  0  0  0  0  0  0
    0.6172   -4.9440   23.5330 O   0  0  0  0  0  0  0  0  0  0  0  0
   -0.5398   -5.0613   25.7202 C   0  0  0  0  0  0  0  0  0  0  0  0
   -0.3234   -4.4085   27.3397 C   0  0  0  0  0  0  0  0  0  0  0  0
    0.7713   -4.3212   33.3740 C   0  0  0  0  0  0  0  0  0  0  0  0
    1.7585   -3.3686   33.9219 C   0  0  0  0  0  0  0  0  0  0  0  0
    1.6093   -2.7411   35.1533 C   0  0  0  0  0  0  0  0  0  0  0  0
    2.5073   -1.8464   35.6334 N   0  0  0  0  0  0  0  0  0  0  0  0
    3.5656   -1.5948   34.8306 C   0  0  0  0  0  0  0  0  0  0  0  0
    3.7217   -2.2082   33.6012 C   0  0  0  0  0  0  0  0  0  0  0  0
    2.8254   -3.1007   33.1186 N   0  0  0  0  0  0  0  0  0  0  0  0
    0.3830   -5.3893   34.1021 C   0  0  0  0  0  0  0  0  0  0  0  0
   -0.3872   -6.3807   33.4957 N   0  0  0  0  0  0  0  0  0  0  0  0
   -0.9445   -7.2060   36.0261 H   0  0  0  0  0  0  0  0  0  0  0  0
   -1.3239   -8.7779   35.4815 H   0  0  0  0  0  0  0  0  0  0  0  0
   -0.6670   -5.2239   30.3605 H   0  0  0  0  0  0  0  0  0  0  0  0
   -0.5654   -2.7843   30.7231 H   0  0  0  0  0  0  0  0  0  0  0  0
    0.5422   -2.0856   31.8824 H   0  0  0  0  0  0  0  0  0  0  0  0
    2.4196   -2.9651   30.7687 H   0  0  0  0  0  0  0  0  0  0  0  0
    3.2947   -4.4067   27.5749 H   0  0  0  0  0  0  0  0  0  0  0  0
    3.2664   -5.3642   25.3396 H   0  0  0  0  0  0  0  0  0  0  0  0
    0.6957   -5.7185   22.9615 H   0  0  0  0  0  0  0  0  0  0  0  0
   -1.4954   -5.3343   25.2713 H   0  0  0  0  0  0  0  0  0  0  0  0
   -1.1637   -4.0431   27.9134 H   0  0  0  0  0  0  0  0  0  0  0  0
    0.7533   -2.9246   35.7937 H   0  0  0  0  0  0  0  0  0  0  0  0
    4.2896   -0.8798   35.2058 H   0  0  0  0  0  0  0  0  0  0  0  0
    4.5754   -1.9949   32.9673 H   0  0  0  0  0  0  0  0  0  0  0  0
    0.6883   -5.5731   35.1250 H   0  0  0  0  0  0  0  0  0  0  0  0
  1  2  1  0
  2  3  2  0
  3  4  1  0
  4  5  2  0
  5  6  1  0
  6  7  2  0
  7  8  1  0
  8  9  1  0
  9 10  1  0
 10 11  2  0
 10 12  2  0
 10 13  1  0
 13 14  2  0
 14 15  1  0
 15 16  2  0
 16 17  1  0
 16 18  1  0
 18 19  2  0
  7 20  1  0
 20 21  1  0
 21 22  2  0
 22 23  1  0
 23 24  2  0
 24 25  1  0
 25 26  2  0
 20 27  2  0
 27 28  1  0
 28  2  1  0
 28  5  1  0
 19 13  1  0
 26 21  1  0
  1 29  1  0
  1 30  1  0
  6 31  1  0
  8 32  1  0
  8 33  1  0
  9 34  1  0
 14 35  1  0
 15 36  1  0
 17 37  1  0
 18 38  1  0
 19 39  1  0
 22 40  1  0
 24 41  1  0
 25 42  1  0
 27 43  1  0
M  END
>  <Energy>  (914) 
159.69124458267225

>  <compound_id>  (914) 
4443

>  <target_id>  (914) 
1

>  <reference_id>  (914) 
147

>  <inspiration_ids>  (914) 
[156, 147]

>  <energy_score>  (914) 
67.71154300746133

>  <distance_score>  (914) 
1.3471919667104926

>  <path>  (914) 
/opt/xchem-fragalysis-2/maxwin/BulkDock/SCRATCH/505735/C4443-P147/C4443-P147.minimised.mol

>  <scratch_subdir>  (914) 
/opt/xchem-fragalysis-2/maxwin/BulkDock/SCRATCH/505735/C4443-P147

>  <fragmenstein_runtime>  (914) 
14.73609185218811

>  <fragmenstein_outcome>  (914) 
too moved

>  <fragmenstein_mode>  (914) 
expansion

>  <fragmenstein_error>  (914) 


$$$$
C4443-P156
     RDKit          2D

  0  0  0  0  0  0  0  0  0  0999 V2000
M  END
>  <compound_id>  (915) 
4443

>  <target_id>  (915) 
1

>  <reference_id>  (915) 
156

>  <inspiration_ids>  (915) 
[156, 148]

>  <energy_score>  (915) 
nan

>  <distance_score>  (915) 
nan

>  <path>  (915) 
/opt/xchem-fragalysis-2/maxwin/BulkDock/SCRATCH/505735/C4443-P156/C4443-P156.minimised.mol

>  <scratch_subdir>  (915) 
/opt/xchem-fragalysis-2/maxwin/BulkDock/SCRATCH/505735/C4443-P156

>  <fragmenstein_runtime>  (915) 
0.7725765705108643

>  <fragmenstein_outcome>  (915) 
too distant

>  <fragmenstein_mode>  (915) 
expansion

>  <fragmenstein_error>  (915) 
DistanceError: hit1

$$$$
C4446-P156
     RDKit          3D

 45 48  0  0  0  0  0  0  0  0999 V2000
    0.4795   -5.4976   34.8933 C   0  0  0  0  0  0  0  0  0  0  0  0
    0.4065   -5.6416   33.3940 C   0  0  0  0  0  0  0  0  0  0  0  0
    1.0984   -4.8540   32.5148 C   0  0  0  0  0  0  0  0  0  0  0  0
    1.9717   -3.7536   32.9920 C   0  0  0  0  0  0  0  0  0  0  0  0
    1.4669   -2.5859   33.5550 C   0  0  0  0  0  0  0  0  0  0  0  0
    2.2590   -1.5497   33.9223 N   0  0  0  0  0  0  0  0  0  0  0  0
    3.5793   -1.7084   33.6776 C   0  0  0  0  0  0  0  0  0  0  0  0
    4.0895   -2.8581   33.1032 C   0  0  0  0  0  0  0  0  0  0  0  0
    3.3022   -3.9055   32.7513 N   0  0  0  0  0  0  0  0  0  0  0  0
    0.9877   -5.1395   31.0563 C   0  0  0  0  0  0  0  0  0  0  0  0
    1.8031   -4.3476   30.0478 C   0  0  0  0  0  0  0  0  0  0  0  0
    3.1930   -4.7899   30.1775 N   0  0  0  0  0  0  0  0  0  0  0  0
    4.2937   -4.1260   29.0913 S   0  0  0  0  0  0  0  0  0  0  0  0
    3.6933   -2.9729   28.4574 O   0  0  0  0  0  0  0  0  0  0  0  0
    5.5556   -4.0476   29.7975 O   0  0  0  0  0  0  0  0  0  0  0  0
    4.5951   -5.2523   27.7862 C   0  0  0  0  0  0  0  0  0  0  0  0
    5.6037   -5.0526   26.8158 C   0  0  0  0  0  0  0  0  0  0  0  0
    5.5293   -6.1551   26.0005 C   0  0  0  0  0  0  0  0  0  0  0  0
    4.5100   -6.9184   26.4846 N   0  0  0  0  0  0  0  0  0  0  0  0
    4.0690   -8.1798   25.9406 C   0  0  0  0  0  0  0  0  0  0  0  0
    3.9258   -6.4109   27.5919 N   0  0  0  0  0  0  0  0  0  0  0  0
    0.1748   -6.1126   30.6109 C   0  0  0  0  0  0  0  0  0  0  0  0
   -0.5485   -6.9170   31.5064 C   0  0  0  0  0  0  0  0  0  0  0  0
   -1.3564   -7.9243   31.2795 N   0  0  0  0  0  0  0  0  0  0  0  0
   -1.7756   -8.3806   32.4908 N   0  0  0  0  0  0  0  0  0  0  0  0
   -1.2332   -7.6471   33.4395 C   0  0  0  0  0  0  0  0  0  0  0  0
   -1.4320   -7.8508   34.7634 N   0  0  0  0  0  0  0  0  0  0  0  0
   -0.4171   -6.6722   32.8676 N   0  0  0  0  0  0  0  0  0  0  0  0
    0.9241   -6.3940   35.3376 H   0  0  0  0  0  0  0  0  0  0  0  0
    1.1021   -4.6660   35.2304 H   0  0  0  0  0  0  0  0  0  0  0  0
   -0.5164   -5.3283   35.3156 H   0  0  0  0  0  0  0  0  0  0  0  0
    0.4044   -2.4415   33.7217 H   0  0  0  0  0  0  0  0  0  0  0  0
    4.2198   -0.8784   33.9551 H   0  0  0  0  0  0  0  0  0  0  0  0
    5.1510   -2.9689   32.9048 H   0  0  0  0  0  0  0  0  0  0  0  0
    1.7074   -3.2750   30.2476 H   0  0  0  0  0  0  0  0  0  0  0  0
    1.4510   -4.5330   29.0269 H   0  0  0  0  0  0  0  0  0  0  0  0
    3.5551   -4.6310   31.1278 H   0  0  0  0  0  0  0  0  0  0  0  0
    6.2965   -4.2253   26.7323 H   0  0  0  0  0  0  0  0  0  0  0  0
    6.1057   -6.4384   25.1298 H   0  0  0  0  0  0  0  0  0  0  0  0
    3.9559   -8.0750   24.8610 H   0  0  0  0  0  0  0  0  0  0  0  0
    4.8232   -8.9333   26.1767 H   0  0  0  0  0  0  0  0  0  0  0  0
    3.1130   -8.4519   26.3871 H   0  0  0  0  0  0  0  0  0  0  0  0
    0.0744   -6.3275   29.5596 H   0  0  0  0  0  0  0  0  0  0  0  0
   -1.7402   -8.8163   34.9439 H   0  0  0  0  0  0  0  0  0  0  0  0
   -0.7011   -7.6222   35.4248 H   0  0  0  0  0  0  0  0  0  0  0  0
  1  2  1  0
  2  3  2  0
  3  4  1  0
  4  5  2  0
  5  6  1  0
  6  7  2  0
  7  8  1  0
  8  9  2  0
  3 10  1  0
 10 11  1  0
 11 12  1  0
 12 13  1  0
 13 14  2  0
 13 15  2  0
 13 16  1  0
 16 17  1  0
 17 18  2  0
 18 19  1  0
 19 20  1  0
 19 21  1  0
 10 22  2  0
 22 23  1  0
 23 24  2  0
 24 25  1  0
 25 26  2  0
 26 27  1  0
 26 28  1  0
 28  2  1  0
  9  4  1  0
 21 16  2  0
 28 23  1  0
  1 29  1  0
  1 30  1  0
  1 31  1  0
  5 32  1  0
  7 33  1  0
  8 34  1  0
 11 35  1  0
 11 36  1  0
 12 37  1  0
 17 38  1  0
 18 39  1  0
 20 40  1  0
 20 41  1  0
 20 42  1  0
 22 43  1  0
 27 44  1  0
 27 45  1  0
M  END
>  <Energy>  (916) 
103.22989443647712

>  <compound_id>  (916) 
4446

>  <target_id>  (916) 
1

>  <reference_id>  (916) 
156

>  <inspiration_ids>  (916) 
[156, 152]

>  <energy_score>  (916) 
-54.485528688745944

>  <distance_score>  (916) 
0.7940799392456389

>  <path>  (916) 
/opt/xchem-fragalysis-2/maxwin/BulkDock/SCRATCH/505735/C4446-P156/C4446-P156.minimised.mol

>  <scratch_subdir>  (916) 
/opt/xchem-fragalysis-2/maxwin/BulkDock/SCRATCH/505735/C4446-P156

>  <fragmenstein_runtime>  (916) 
4.063740968704224

>  <fragmenstein_outcome>  (916) 
acceptable

>  <fragmenstein_mode>  (916) 
expansion

>  <fragmenstein_error>  (916) 


$$$$
C4446-P152
     RDKit          3D

 45 48  0  0  0  0  0  0  0  0999 V2000
    0.5033   -5.5345   34.9459 C   0  0  0  0  0  0  0  0  0  0  0  0
    0.3709   -5.6172   33.4467 C   0  0  0  0  0  0  0  0  0  0  0  0
    1.0339   -4.7985   32.5726 C   0  0  0  0  0  0  0  0  0  0  0  0
    1.9376   -3.7243   33.0519 C   0  0  0  0  0  0  0  0  0  0  0  0
    1.4683   -2.5792   33.6869 C   0  0  0  0  0  0  0  0  0  0  0  0
    2.2833   -1.5586   34.0476 N   0  0  0  0  0  0  0  0  0  0  0  0
    3.5881   -1.7103   33.7267 C   0  0  0  0  0  0  0  0  0  0  0  0
    4.0623   -2.8373   33.0809 C   0  0  0  0  0  0  0  0  0  0  0  0
    3.2523   -3.8673   32.7288 N   0  0  0  0  0  0  0  0  0  0  0  0
    0.8552   -5.0159   31.1104 C   0  0  0  0  0  0  0  0  0  0  0  0
    1.6108   -4.1722   30.0977 C   0  0  0  0  0  0  0  0  0  0  0  0
    3.0000   -4.6357   30.1176 N   0  0  0  0  0  0  0  0  0  0  0  0
    4.0324   -3.9722   28.9687 S   0  0  0  0  0  0  0  0  0  0  0  0
    3.3515   -2.9029   28.2741 O   0  0  0  0  0  0  0  0  0  0  0  0
    5.3050   -3.7840   29.6319 O   0  0  0  0  0  0  0  0  0  0  0  0
    4.3617   -5.1647   27.7275 C   0  0  0  0  0  0  0  0  0  0  0  0
    5.3950   -5.0130   26.7740 C   0  0  0  0  0  0  0  0  0  0  0  0
    5.3232   -6.1424   25.9965 C   0  0  0  0  0  0  0  0  0  0  0  0
    4.2850   -6.8753   26.4853 N   0  0  0  0  0  0  0  0  0  0  0  0
    3.8355   -8.1482   25.9772 C   0  0  0  0  0  0  0  0  0  0  0  0
    3.6831   -6.3244   27.5620 N   0  0  0  0  0  0  0  0  0  0  0  0
    0.0298   -5.9747   30.6608 C   0  0  0  0  0  0  0  0  0  0  0  0
   -0.6488   -6.8226   31.5500 C   0  0  0  0  0  0  0  0  0  0  0  0
   -1.4466   -7.8338   31.3112 N   0  0  0  0  0  0  0  0  0  0  0  0
   -1.8433   -8.3238   32.5174 N   0  0  0  0  0  0  0  0  0  0  0  0
   -1.2852   -7.6150   33.4750 C   0  0  0  0  0  0  0  0  0  0  0  0
   -1.4632   -7.8528   34.7958 N   0  0  0  0  0  0  0  0  0  0  0  0
   -0.4785   -6.6244   32.9137 N   0  0  0  0  0  0  0  0  0  0  0  0
    0.9432   -6.4576   35.3375 H   0  0  0  0  0  0  0  0  0  0  0  0
    1.1579   -4.7308   35.2901 H   0  0  0  0  0  0  0  0  0  0  0  0
   -0.4718   -5.3619   35.4127 H   0  0  0  0  0  0  0  0  0  0  0  0
    0.4169   -2.4401   33.9171 H   0  0  0  0  0  0  0  0  0  0  0  0
    4.2459   -0.8933   34.0026 H   0  0  0  0  0  0  0  0  0  0  0  0
    5.1113   -2.9420   32.8221 H   0  0  0  0  0  0  0  0  0  0  0  0
    1.5429   -3.1104   30.3569 H   0  0  0  0  0  0  0  0  0  0  0  0
    1.1907   -4.3025   29.0939 H   0  0  0  0  0  0  0  0  0  0  0  0
    3.4267   -4.4883   31.0436 H   0  0  0  0  0  0  0  0  0  0  0  0
    6.0963   -4.1940   26.6748 H   0  0  0  0  0  0  0  0  0  0  0  0
    5.9084   -6.4580   25.1442 H   0  0  0  0  0  0  0  0  0  0  0  0
    4.5779   -8.9030   26.2446 H   0  0  0  0  0  0  0  0  0  0  0  0
    2.8780   -8.3942   26.4332 H   0  0  0  0  0  0  0  0  0  0  0  0
    3.7227   -8.0777   24.8953 H   0  0  0  0  0  0  0  0  0  0  0  0
   -0.1229   -6.1349   29.6068 H   0  0  0  0  0  0  0  0  0  0  0  0
   -0.7207   -7.6492   35.4514 H   0  0  0  0  0  0  0  0  0  0  0  0
   -1.7822   -8.8212   34.9530 H   0  0  0  0  0  0  0  0  0  0  0  0
  1  2  1  0
  2  3  2  0
  3  4  1  0
  4  5  2  0
  5  6  1  0
  6  7  2  0
  7  8  1  0
  8  9  2  0
  3 10  1  0
 10 11  1  0
 11 12  1  0
 12 13  1  0
 13 14  2  0
 13 15  2  0
 13 16  1  0
 16 17  1  0
 17 18  2  0
 18 19  1  0
 19 20  1  0
 19 21  1  0
 10 22  2  0
 22 23  1  0
 23 24  2  0
 24 25  1  0
 25 26  2  0
 26 27  1  0
 26 28  1  0
 28  2  1  0
  9  4  1  0
 21 16  2  0
 28 23  1  0
  1 29  1  0
  1 30  1  0
  1 31  1  0
  5 32  1  0
  7 33  1  0
  8 34  1  0
 11 35  1  0
 11 36  1  0
 12 37  1  0
 17 38  1  0
 18 39  1  0
 20 40  1  0
 20 41  1  0
 20 42  1  0
 22 43  1  0
 27 44  1  0
 27 45  1  0
M  END
>  <Energy>  (917) 
104.15592396235135

>  <compound_id>  (917) 
4446

>  <target_id>  (917) 
1

>  <reference_id>  (917) 
152

>  <inspiration_ids>  (917) 
[156, 152]

>  <energy_score>  (917) 
-53.55949916287233

>  <distance_score>  (917) 
0.7799835746710895

>  <path>  (917) 
/opt/xchem-fragalysis-2/maxwin/BulkDock/SCRATCH/505735/C4446-P152/C4446-P152.minimised.mol

>  <scratch_subdir>  (917) 
/opt/xchem-fragalysis-2/maxwin/BulkDock/SCRATCH/505735/C4446-P152

>  <fragmenstein_runtime>  (917) 
4.0166754722595215

>  <fragmenstein_outcome>  (917) 
acceptable

>  <fragmenstein_mode>  (917) 
expansion

>  <fragmenstein_error>  (917) 


$$$$
C4448-P156
     RDKit          3D

 37 40  0  0  0  0  0  0  0  0999 V2000
   -0.6075   -7.3231   34.5525 N   0  0  0  0  0  0  0  0  0  0  0  0
   -0.6147   -7.2464   33.2046 C   0  0  0  0  0  0  0  0  0  0  0  0
   -1.3718   -7.9390   32.3795 N   0  0  0  0  0  0  0  0  0  0  0  0
   -1.0539   -7.5772   31.0925 N   0  0  0  0  0  0  0  0  0  0  0  0
   -0.0761   -6.7000   31.1625 C   0  0  0  0  0  0  0  0  0  0  0  0
    0.6811   -6.0356   30.1719 C   0  0  0  0  0  0  0  0  0  0  0  0
    1.7779   -5.2799   30.4244 C   0  0  0  0  0  0  0  0  0  0  0  0
    2.5329   -4.7532   29.3337 N   0  0  0  0  0  0  0  0  0  0  0  0
    4.1934   -4.8880   29.1522 N   0  0  0  0  0  0  0  0  0  0  0  0
    4.8271   -6.4439   28.6581 S   0  0  0  0  0  0  0  0  0  0  0  0
    3.6230   -7.2157   28.4050 O   0  0  0  0  0  0  0  0  0  0  0  0
    5.8358   -6.7742   29.6354 O   0  0  0  0  0  0  0  0  0  0  0  0
    5.6960   -6.6680   27.1975 C   0  0  0  0  0  0  0  0  0  0  0  0
    5.8654   -5.7312   26.2183 C   0  0  0  0  0  0  0  0  0  0  0  0
    6.5291   -6.5039   24.8512 S   0  0  0  0  0  0  0  0  0  0  0  0
    6.6744   -7.9610   25.6969 C   0  0  0  0  0  0  0  0  0  0  0  0
    6.2238   -7.9356   26.9222 N   0  0  0  0  0  0  0  0  0  0  0  0
    2.0000   -4.9301   31.8585 C   0  0  0  0  0  0  0  0  0  0  0  0
    2.8549   -3.8231   32.3173 C   0  0  0  0  0  0  0  0  0  0  0  0
    2.3258   -2.7740   33.0795 C   0  0  0  0  0  0  0  0  0  0  0  0
    3.0752   -1.7555   33.5589 N   0  0  0  0  0  0  0  0  0  0  0  0
    4.3807   -1.8080   33.2231 C   0  0  0  0  0  0  0  0  0  0  0  0
    4.9089   -2.8316   32.4494 C   0  0  0  0  0  0  0  0  0  0  0  0
    4.1652   -3.8625   31.9763 N   0  0  0  0  0  0  0  0  0  0  0  0
    1.2651   -5.5576   32.8215 C   0  0  0  0  0  0  0  0  0  0  0  0
    0.2540   -6.4512   32.4721 N   0  0  0  0  0  0  0  0  0  0  0  0
   -0.5691   -6.4614   35.0907 H   0  0  0  0  0  0  0  0  0  0  0  0
   -1.2964   -7.9699   34.9376 H   0  0  0  0  0  0  0  0  0  0  0  0
    0.3468   -6.1931   29.1770 H   0  0  0  0  0  0  0  0  0  0  0  0
    2.1422   -5.0959   28.4482 H   0  0  0  0  0  0  0  0  0  0  0  0
    4.6386   -4.6296   30.0519 H   0  0  0  0  0  0  0  0  0  0  0  0
    5.5687   -4.6933   26.1981 H   0  0  0  0  0  0  0  0  0  0  0  0
    7.0900   -8.8574   25.2582 H   0  0  0  0  0  0  0  0  0  0  0  0
    1.2713   -2.7204   33.3303 H   0  0  0  0  0  0  0  0  0  0  0  0
    5.0013   -0.9985   33.5919 H   0  0  0  0  0  0  0  0  0  0  0  0
    5.9631   -2.8499   32.1928 H   0  0  0  0  0  0  0  0  0  0  0  0
    1.3814   -5.3733   33.8840 H   0  0  0  0  0  0  0  0  0  0  0  0
  1  2  1  0
  2  3  2  0
  3  4  1  0
  4  5  2  0
  5  6  1  0
  6  7  2  0
  7  8  1  0
  8  9  1  0
  9 10  1  0
 10 11  2  0
 10 12  2  0
 10 13  1  0
 13 14  2  0
 14 15  1  0
 15 16  1  0
 16 17  2  0
  7 18  1  0
 18 19  1  0
 19 20  2  0
 20 21  1  0
 21 22  2  0
 22 23  1  0
 23 24  2  0
 18 25  2  0
 25 26  1  0
 26  2  1  0
 26  5  1  0
 17 13  1  0
 24 19  1  0
  1 27  1  0
  1 28  1  0
  6 29  1  0
  8 30  1  0
  9 31  1  0
 14 32  1  0
 16 33  1  0
 20 34  1  0
 22 35  1  0
 23 36  1  0
 25 37  1  0
M  END
>  <Energy>  (918) 
202.86302975716495

>  <compound_id>  (918) 
4448

>  <target_id>  (918) 
1

>  <reference_id>  (918) 
156

>  <inspiration_ids>  (918) 
[156, 154]

>  <energy_score>  (918) 
-103.69689781846574

>  <distance_score>  (918) 
2.0435500104205113

>  <path>  (918) 
/opt/xchem-fragalysis-2/maxwin/BulkDock/SCRATCH/505735/C4448-P156/C4448-P156.minimised.mol

>  <scratch_subdir>  (918) 
/opt/xchem-fragalysis-2/maxwin/BulkDock/SCRATCH/505735/C4448-P156

>  <fragmenstein_runtime>  (918) 
3.494492530822754

>  <fragmenstein_outcome>  (918) 
too moved

>  <fragmenstein_mode>  (918) 
expansion

>  <fragmenstein_error>  (918) 


$$$$
C4448-P154
     RDKit          3D

 37 40  0  0  0  0  0  0  0  0999 V2000
   -0.7617   -7.1542   34.2103 N   0  0  0  0  0  0  0  0  0  0  0  0
   -0.5854   -7.1520   32.8664 C   0  0  0  0  0  0  0  0  0  0  0  0
   -1.2004   -7.9066   31.9811 N   0  0  0  0  0  0  0  0  0  0  0  0
   -0.6882   -7.6159   30.7357 N   0  0  0  0  0  0  0  0  0  0  0  0
    0.2640   -6.7205   30.8966 C   0  0  0  0  0  0  0  0  0  0  0  0
    1.1892   -6.1173   30.0072 C   0  0  0  0  0  0  0  0  0  0  0  0
    2.0954   -5.1776   30.3673 C   0  0  0  0  0  0  0  0  0  0  0  0
    2.9044   -4.5627   29.3606 N   0  0  0  0  0  0  0  0  0  0  0  0
    4.5607   -4.7917   29.1975 N   0  0  0  0  0  0  0  0  0  0  0  0
    5.1192   -6.3506   28.6425 S   0  0  0  0  0  0  0  0  0  0  0  0
    3.8772   -7.0560   28.3838 O   0  0  0  0  0  0  0  0  0  0  0  0
    6.1240   -6.7645   29.5924 O   0  0  0  0  0  0  0  0  0  0  0  0
    5.9393   -6.5522   27.1471 C   0  0  0  0  0  0  0  0  0  0  0  0
    5.8896   -5.6621   26.1112 C   0  0  0  0  0  0  0  0  0  0  0  0
    6.4581   -6.4386   24.7044 S   0  0  0  0  0  0  0  0  0  0  0  0
    6.8495   -7.8285   25.5902 C   0  0  0  0  0  0  0  0  0  0  0  0
    6.5576   -7.7790   26.8639 N   0  0  0  0  0  0  0  0  0  0  0  0
    2.0515   -4.7286   31.7912 C   0  0  0  0  0  0  0  0  0  0  0  0
    2.8534   -3.6243   32.3383 C   0  0  0  0  0  0  0  0  0  0  0  0
    2.2673   -2.5905   33.0762 C   0  0  0  0  0  0  0  0  0  0  0  0
    2.9787   -1.5835   33.6331 N   0  0  0  0  0  0  0  0  0  0  0  0
    4.3076   -1.6361   33.4050 C   0  0  0  0  0  0  0  0  0  0  0  0
    4.8954   -2.6485   32.6617 C   0  0  0  0  0  0  0  0  0  0  0  0
    4.1896   -3.6663   32.1146 N   0  0  0  0  0  0  0  0  0  0  0  0
    1.2116   -5.3566   32.6625 C   0  0  0  0  0  0  0  0  0  0  0  0
    0.3374   -6.3454   32.2188 N   0  0  0  0  0  0  0  0  0  0  0  0
   -1.1979   -6.3022   34.5759 H   0  0  0  0  0  0  0  0  0  0  0  0
   -1.3358   -7.9454   34.5124 H   0  0  0  0  0  0  0  0  0  0  0  0
    1.2319   -6.4861   29.0074 H   0  0  0  0  0  0  0  0  0  0  0  0
    2.5291   -4.8085   28.4350 H   0  0  0  0  0  0  0  0  0  0  0  0
    5.0049   -4.5882   30.1083 H   0  0  0  0  0  0  0  0  0  0  0  0
    5.4672   -4.6689   26.0768 H   0  0  0  0  0  0  0  0  0  0  0  0
    7.2859   -8.7054   25.1317 H   0  0  0  0  0  0  0  0  0  0  0  0
    1.1964   -2.5391   33.2435 H   0  0  0  0  0  0  0  0  0  0  0  0
    4.8976   -0.8355   33.8374 H   0  0  0  0  0  0  0  0  0  0  0  0
    5.9667   -2.6678   32.4923 H   0  0  0  0  0  0  0  0  0  0  0  0
    1.1508   -5.1264   33.7210 H   0  0  0  0  0  0  0  0  0  0  0  0
  1  2  1  0
  2  3  2  0
  3  4  1  0
  4  5  2  0
  5  6  1  0
  6  7  2  0
  7  8  1  0
  8  9  1  0
  9 10  1  0
 10 11  2  0
 10 12  2  0
 10 13  1  0
 13 14  2  0
 14 15  1  0
 15 16  1  0
 16 17  2  0
  7 18  1  0
 18 19  1  0
 19 20  2  0
 20 21  1  0
 21 22  2  0
 22 23  1  0
 23 24  2  0
 18 25  2  0
 25 26  1  0
 26  2  1  0
 26  5  1  0
 17 13  1  0
 24 19  1  0
  1 27  1  0
  1 28  1  0
  6 29  1  0
  8 30  1  0
  9 31  1  0
 14 32  1  0
 16 33  1  0
 20 34  1  0
 22 35  1  0
 23 36  1  0
 25 37  1  0
M  END
>  <Energy>  (919) 
205.08102129021233

>  <compound_id>  (919) 
4448

>  <target_id>  (919) 
1

>  <reference_id>  (919) 
154

>  <inspiration_ids>  (919) 
[156, 154]

>  <energy_score>  (919) 
-101.47890628541575

>  <distance_score>  (919) 
2.068136857025883

>  <path>  (919) 
/opt/xchem-fragalysis-2/maxwin/BulkDock/SCRATCH/505735/C4448-P154/C4448-P154.minimised.mol

>  <scratch_subdir>  (919) 
/opt/xchem-fragalysis-2/maxwin/BulkDock/SCRATCH/505735/C4448-P154

>  <fragmenstein_runtime>  (919) 
3.4334354400634766

>  <fragmenstein_outcome>  (919) 
too moved

>  <fragmenstein_mode>  (919) 
expansion

>  <fragmenstein_error>  (919) 


$$$$
C4452-P156
     RDKit          3D

 51 54  0  0  0  0  0  0  0  0999 V2000
   -0.9272   -7.5867   34.3990 N   0  0  0  0  0  0  0  0  0  0  0  0
   -0.9961   -7.0325   33.0906 C   0  0  0  0  0  0  0  0  0  0  0  0
   -1.4963   -8.0570   32.1925 N   0  0  0  0  0  0  0  0  0  0  0  0
   -1.0949   -7.6106   30.8823 N   0  0  0  0  0  0  0  0  0  0  0  0
   -0.6075   -8.7151   30.0879 O   0  0  0  0  0  0  0  0  0  0  0  0
    0.0651   -6.7165   31.1178 C   0  0  0  0  0  0  0  0  0  0  0  0
   -0.3136   -5.3182   30.6326 C   0  0  0  0  0  0  0  0  0  0  0  0
    0.6997   -4.2747   31.0358 C   0  0  0  0  0  0  0  0  0  0  0  0
    0.3779   -2.9229   30.4231 N   0  0  0  0  0  0  0  0  0  0  0  0
   -0.9971   -2.0645   30.8685 S   0  0  0  0  0  0  0  0  0  0  0  0
   -0.7115   -1.4541   32.1435 O   0  0  0  0  0  0  0  0  0  0  0  0
   -2.1493   -2.9146   30.7241 O   0  0  0  0  0  0  0  0  0  0  0  0
   -1.0297   -0.8482   29.7110 N   0  0  0  0  0  0  0  0  0  0  0  0
   -1.3398   -1.2548   28.3034 C   0  0  0  0  0  0  0  0  0  0  0  0
   -1.5234   -0.0083   27.4237 C   0  0  0  0  0  0  0  0  0  0  0  0
   -0.3552    0.8241   27.4485 O   0  0  0  0  0  0  0  0  0  0  0  0
   -0.1626    1.3028   28.7826 C   0  0  0  0  0  0  0  0  0  0  0  0
    0.0855    0.1425   29.7524 C   0  0  0  0  0  0  0  0  0  0  0  0
    0.8185   -4.2696   32.5691 C   0  0  0  0  0  0  0  0  0  0  0  0
    1.9437   -3.3565   32.9981 C   0  0  0  0  0  0  0  0  0  0  0  0
    1.7567   -2.4168   34.0043 C   0  0  0  0  0  0  0  0  0  0  0  0
    2.7384   -1.5776   34.4069 N   0  0  0  0  0  0  0  0  0  0  0  0
    3.9214   -1.7113   33.7702 C   0  0  0  0  0  0  0  0  0  0  0  0
    4.1193   -2.6423   32.7687 C   0  0  0  0  0  0  0  0  0  0  0  0
    3.1405   -3.4806   32.3591 N   0  0  0  0  0  0  0  0  0  0  0  0
    1.0947   -5.6956   33.1021 C   0  0  0  0  0  0  0  0  0  0  0  0
    0.3143   -6.8009   32.5558 N   0  0  0  0  0  0  0  0  0  0  0  0
   -0.7257   -8.5784   34.2827 H   0  0  0  0  0  0  0  0  0  0  0  0
   -1.8588   -7.6011   34.7971 H   0  0  0  0  0  0  0  0  0  0  0  0
   -1.6101   -6.1274   33.0876 H   0  0  0  0  0  0  0  0  0  0  0  0
   -2.5107   -8.1158   32.2631 H   0  0  0  0  0  0  0  0  0  0  0  0
   -0.3776   -9.3773   30.7690 H   0  0  0  0  0  0  0  0  0  0  0  0
    0.9473   -7.0453   30.5646 H   0  0  0  0  0  0  0  0  0  0  0  0
   -0.4494   -5.3099   29.5461 H   0  0  0  0  0  0  0  0  0  0  0  0
   -1.2580   -5.0412   31.1007 H   0  0  0  0  0  0  0  0  0  0  0  0
    1.6618   -4.5631   30.5884 H   0  0  0  0  0  0  0  0  0  0  0  0
    1.1918   -2.3157   30.5388 H   0  0  0  0  0  0  0  0  0  0  0  0
   -2.2504   -1.8531   28.2726 H   0  0  0  0  0  0  0  0  0  0  0  0
   -0.4996   -1.8490   27.9337 H   0  0  0  0  0  0  0  0  0  0  0  0
   -2.3554    0.6140   27.7440 H   0  0  0  0  0  0  0  0  0  0  0  0
   -1.7338   -0.2803   26.3929 H   0  0  0  0  0  0  0  0  0  0  0  0
    0.7047    1.9704   28.7750 H   0  0  0  0  0  0  0  0  0  0  0  0
   -1.0343    1.8946   29.0757 H   0  0  0  0  0  0  0  0  0  0  0  0
    0.1940    0.5478   30.7632 H   0  0  0  0  0  0  0  0  0  0  0  0
    1.0169   -0.3599   29.4679 H   0  0  0  0  0  0  0  0  0  0  0  0
   -0.1269   -3.9237   33.0060 H   0  0  0  0  0  0  0  0  0  0  0  0
    0.8044   -2.2973   34.5121 H   0  0  0  0  0  0  0  0  0  0  0  0
    4.7129   -1.0445   34.0927 H   0  0  0  0  0  0  0  0  0  0  0  0
    5.0760   -2.7402   32.2687 H   0  0  0  0  0  0  0  0  0  0  0  0
    1.0406   -5.6931   34.1990 H   0  0  0  0  0  0  0  0  0  0  0  0
    2.1430   -5.9471   32.8873 H   0  0  0  0  0  0  0  0  0  0  0  0
  1  2  1  0
  2  3  1  0
  3  4  1  0
  4  5  1  0
  4  6  1  0
  6  7  1  0
  7  8  1  0
  8  9  1  0
  9 10  1  0
 10 11  2  0
 10 12  2  0
 10 13  1  0
 13 14  1  0
 14 15  1  0
 15 16  1  0
 16 17  1  0
 17 18  1  0
  8 19  1  0
 19 20  1  0
 20 21  2  0
 21 22  1  0
 22 23  2  0
 23 24  1  0
 24 25  2  0
 19 26  1  0
 26 27  1  0
 27  2  1  0
 27  6  1  0
 18 13  1  0
 25 20  1  0
  1 28  1  0
  1 29  1  0
  2 30  1  0
  3 31  1  0
  5 32  1  0
  6 33  1  0
  7 34  1  0
  7 35  1  0
  8 36  1  0
  9 37  1  0
 14 38  1  0
 14 39  1  0
 15 40  1  0
 15 41  1  0
 17 42  1  0
 17 43  1  0
 18 44  1  0
 18 45  1  0
 19 46  1  0
 21 47  1  0
 23 48  1  0
 24 49  1  0
 26 50  1  0
 26 51  1  0
M  END
>  <Energy>  (920) 
-174.58083548165283

>  <compound_id>  (920) 
4452

>  <target_id>  (920) 
1

>  <reference_id>  (920) 
156

>  <inspiration_ids>  (920) 
[156, 162]

>  <energy_score>  (920) 
-84.35950241626922

>  <distance_score>  (920) 
1.0588043797508606

>  <path>  (920) 
/opt/xchem-fragalysis-2/maxwin/BulkDock/SCRATCH/505735/C4452-P156/C4452-P156.minimised.mol

>  <scratch_subdir>  (920) 
/opt/xchem-fragalysis-2/maxwin/BulkDock/SCRATCH/505735/C4452-P156

>  <fragmenstein_runtime>  (920) 
4.454509258270264

>  <fragmenstein_outcome>  (920) 
too moved

>  <fragmenstein_mode>  (920) 
expansion

>  <fragmenstein_error>  (920) 


$$$$
C4452-P162
     RDKit          3D

 51 54  0  0  0  0  0  0  0  0999 V2000
   -0.5130   -7.8095   34.4407 N   0  0  0  0  0  0  0  0  0  0  0  0
   -0.7909   -7.1796   33.1978 C   0  0  0  0  0  0  0  0  0  0  0  0
   -1.2553   -8.1863   32.2597 N   0  0  0  0  0  0  0  0  0  0  0  0
   -1.0352   -7.5851   30.9778 N   0  0  0  0  0  0  0  0  0  0  0  0
   -0.6717   -8.5549   29.9728 O   0  0  0  0  0  0  0  0  0  0  0  0
    0.1229   -6.6802   31.1679 C   0  0  0  0  0  0  0  0  0  0  0  0
   -0.2835   -5.2916   30.6936 C   0  0  0  0  0  0  0  0  0  0  0  0
    0.7033   -4.2255   31.0860 C   0  0  0  0  0  0  0  0  0  0  0  0
    0.3283   -2.8953   30.4641 N   0  0  0  0  0  0  0  0  0  0  0  0
   -1.0407   -2.0473   30.9452 S   0  0  0  0  0  0  0  0  0  0  0  0
   -0.6822   -1.3468   32.1534 O   0  0  0  0  0  0  0  0  0  0  0  0
   -2.1882   -2.9169   30.9313 O   0  0  0  0  0  0  0  0  0  0  0  0
   -1.1757   -0.9136   29.7167 N   0  0  0  0  0  0  0  0  0  0  0  0
   -1.6462   -1.4125   28.3856 C   0  0  0  0  0  0  0  0  0  0  0  0
   -1.9344   -0.2238   27.4557 C   0  0  0  0  0  0  0  0  0  0  0  0
   -0.7874    0.6280   27.3034 O   0  0  0  0  0  0  0  0  0  0  0  0
   -0.4116    1.1589   28.5751 C   0  0  0  0  0  0  0  0  0  0  0  0
   -0.0465    0.0455   29.5591 C   0  0  0  0  0  0  0  0  0  0  0  0
    0.8372   -4.2118   32.6143 C   0  0  0  0  0  0  0  0  0  0  0  0
    1.9505   -3.2763   33.0255 C   0  0  0  0  0  0  0  0  0  0  0  0
    1.7653   -2.3500   34.0436 C   0  0  0  0  0  0  0  0  0  0  0  0
    2.7433   -1.5053   34.4438 N   0  0  0  0  0  0  0  0  0  0  0  0
    3.9187   -1.6173   33.7889 C   0  0  0  0  0  0  0  0  0  0  0  0
    4.1142   -2.5335   32.7738 C   0  0  0  0  0  0  0  0  0  0  0  0
    3.1404   -3.3788   32.3690 N   0  0  0  0  0  0  0  0  0  0  0  0
    1.1572   -5.6272   33.1493 C   0  0  0  0  0  0  0  0  0  0  0  0
    0.4361   -6.7574   32.5873 N   0  0  0  0  0  0  0  0  0  0  0  0
   -0.9727   -8.7255   34.4653 H   0  0  0  0  0  0  0  0  0  0  0  0
   -0.9281   -7.2800   35.2001 H   0  0  0  0  0  0  0  0  0  0  0  0
   -1.5058   -6.3608   33.3063 H   0  0  0  0  0  0  0  0  0  0  0  0
   -2.2435   -8.3750   32.4258 H   0  0  0  0  0  0  0  0  0  0  0  0
   -0.3618   -9.3106   30.5131 H   0  0  0  0  0  0  0  0  0  0  0  0
    0.9916   -7.0051   30.5896 H   0  0  0  0  0  0  0  0  0  0  0  0
   -0.4078   -5.2766   29.6079 H   0  0  0  0  0  0  0  0  0  0  0  0
   -1.2366   -5.0385   31.1578 H   0  0  0  0  0  0  0  0  0  0  0  0
    1.6680   -4.4884   30.6285 H   0  0  0  0  0  0  0  0  0  0  0  0
    1.1332   -2.2697   30.5349 H   0  0  0  0  0  0  0  0  0  0  0  0
   -2.5637   -1.9929   28.5079 H   0  0  0  0  0  0  0  0  0  0  0  0
   -0.8615   -2.0444   27.9616 H   0  0  0  0  0  0  0  0  0  0  0  0
   -2.7468    0.3933   27.8429 H   0  0  0  0  0  0  0  0  0  0  0  0
   -2.2401   -0.5711   26.4674 H   0  0  0  0  0  0  0  0  0  0  0  0
    0.4503    1.8157   28.4209 H   0  0  0  0  0  0  0  0  0  0  0  0
   -1.2315    1.7700   28.9536 H   0  0  0  0  0  0  0  0  0  0  0  0
    0.2070    0.4958   30.5237 H   0  0  0  0  0  0  0  0  0  0  0  0
    0.8280   -0.4920   29.1751 H   0  0  0  0  0  0  0  0  0  0  0  0
   -0.1106   -3.8852   33.0611 H   0  0  0  0  0  0  0  0  0  0  0  0
    0.8188   -2.2482   34.5655 H   0  0  0  0  0  0  0  0  0  0  0  0
    4.7063   -0.9444   34.1082 H   0  0  0  0  0  0  0  0  0  0  0  0
    5.0646   -2.6138   32.2592 H   0  0  0  0  0  0  0  0  0  0  0  0
    1.0892   -5.6251   34.2454 H   0  0  0  0  0  0  0  0  0  0  0  0
    2.2173   -5.8388   32.9503 H   0  0  0  0  0  0  0  0  0  0  0  0
  1  2  1  0
  2  3  1  0
  3  4  1  0
  4  5  1  0
  4  6  1  0
  6  7  1  0
  7  8  1  0
  8  9  1  0
  9 10  1  0
 10 11  2  0
 10 12  2  0
 10 13  1  0
 13 14  1  0
 14 15  1  0
 15 16  1  0
 16 17  1  0
 17 18  1  0
  8 19  1  0
 19 20  1  0
 20 21  2  0
 21 22  1  0
 22 23  2  0
 23 24  1  0
 24 25  2  0
 19 26  1  0
 26 27  1  0
 27  2  1  0
 27  6  1  0
 18 13  1  0
 25 20  1  0
  1 28  1  0
  1 29  1  0
  2 30  1  0
  3 31  1  0
  5 32  1  0
  6 33  1  0
  7 34  1  0
  7 35  1  0
  8 36  1  0
  9 37  1  0
 14 38  1  0
 14 39  1  0
 15 40  1  0
 15 41  1  0
 17 42  1  0
 17 43  1  0
 18 44  1  0
 18 45  1  0
 19 46  1  0
 21 47  1  0
 23 48  1  0
 24 49  1  0
 26 50  1  0
 26 51  1  0
M  END
>  <Energy>  (921) 
-169.04732807329017

>  <compound_id>  (921) 
4452

>  <target_id>  (921) 
1

>  <reference_id>  (921) 
162

>  <inspiration_ids>  (921) 
[156, 162]

>  <energy_score>  (921) 
-78.82599500790714

>  <distance_score>  (921) 
1.0081705298189378

>  <path>  (921) 
/opt/xchem-fragalysis-2/maxwin/BulkDock/SCRATCH/505735/C4452-P162/C4452-P162.minimised.mol

>  <scratch_subdir>  (921) 
/opt/xchem-fragalysis-2/maxwin/BulkDock/SCRATCH/505735/C4452-P162

>  <fragmenstein_runtime>  (921) 
3.036466598510742

>  <fragmenstein_outcome>  (921) 
too moved

>  <fragmenstein_mode>  (921) 
expansion

>  <fragmenstein_error>  (921) 


$$$$
C4453-P156
     RDKit          3D

 54 58  0  0  0  0  0  0  0  0999 V2000
   -0.4085   -1.4065   28.9711 C   0  0  0  0  0  0  0  0  0  0  0  0
   -0.1091   -0.1586   29.7791 C   0  0  0  0  0  0  0  0  0  0  0  0
    0.8400   -0.5303   31.2434 S   0  0  0  0  0  0  0  0  0  0  0  0
    2.1849   -0.8978   30.8548 O   0  0  0  0  0  0  0  0  0  0  0  0
   -0.0571   -1.3610   32.1975 N   0  0  0  0  0  0  0  0  0  0  0  0
    0.4593   -1.9349   33.4993 N   0  0  0  0  0  0  0  0  0  0  0  0
    1.7778   -2.4554   33.5694 C   0  0  0  0  0  0  0  0  0  0  0  0
    2.7436   -1.5994   33.9990 N   0  0  0  0  0  0  0  0  0  0  0  0
    4.0205   -2.0106   33.8450 C   0  0  0  0  0  0  0  0  0  0  0  0
    4.3449   -3.2472   33.3208 C   0  0  0  0  0  0  0  0  0  0  0  0
    3.4078   -4.1421   32.9417 N   0  0  0  0  0  0  0  0  0  0  0  0
    2.1158   -3.7247   33.0541 C   0  0  0  0  0  0  0  0  0  0  0  0
    1.1449   -4.6860   32.4993 C   0  0  0  0  0  0  0  0  0  0  0  0
    0.9263   -4.7916   31.0549 C   0  0  0  0  0  0  0  0  0  0  0  0
    0.1381   -5.7388   30.5201 C   0  0  0  0  0  0  0  0  0  0  0  0
   -0.5058   -6.6766   31.3629 C   0  0  0  0  0  0  0  0  0  0  0  0
   -1.2837   -7.7054   31.1113 N   0  0  0  0  0  0  0  0  0  0  0  0
   -1.6459   -8.2499   32.3175 N   0  0  0  0  0  0  0  0  0  0  0  0
   -1.0930   -7.5485   33.2841 C   0  0  0  0  0  0  0  0  0  0  0  0
   -1.2105   -7.7829   34.6138 N   0  0  0  0  0  0  0  0  0  0  0  0
   -0.3320   -6.5316   32.7323 N   0  0  0  0  0  0  0  0  0  0  0  0
    0.4886   -5.5525   33.3041 C   0  0  0  0  0  0  0  0  0  0  0  0
    0.9985    0.9049   32.1300 N   0  0  0  0  0  0  0  0  0  0  0  0
    2.1598    1.7673   31.9655 C   0  0  0  0  0  0  0  0  0  0  0  0
    2.2359    2.4129   30.6020 C   0  0  0  0  0  0  0  0  0  0  0  0
    3.1446    1.9141   29.6359 C   0  0  0  0  0  0  0  0  0  0  0  0
    3.1939    2.4438   28.3427 C   0  0  0  0  0  0  0  0  0  0  0  0
    2.3280    3.4698   28.0410 C   0  0  0  0  0  0  0  0  0  0  0  0
    1.4525    3.9727   28.9739 C   0  0  0  0  0  0  0  0  0  0  0  0
    1.3815    3.4717   30.2579 C   0  0  0  0  0  0  0  0  0  0  0  0
    0.6928    4.9826   28.4749 O   0  0  0  0  0  0  0  0  0  0  0  0
    1.1291    5.0031   27.1036 C   0  0  0  0  0  0  0  0  0  0  0  0
    2.2195    4.0918   26.8359 O   0  0  0  0  0  0  0  0  0  0  0  0
   -0.9758   -1.1479   28.0721 H   0  0  0  0  0  0  0  0  0  0  0  0
   -0.9994   -2.1239   29.5494 H   0  0  0  0  0  0  0  0  0  0  0  0
    0.5152   -1.9063   28.6627 H   0  0  0  0  0  0  0  0  0  0  0  0
   -1.0378    0.3251   30.0968 H   0  0  0  0  0  0  0  0  0  0  0  0
    0.4658    0.5459   29.1745 H   0  0  0  0  0  0  0  0  0  0  0  0
   -0.1861   -2.6366   33.8661 H   0  0  0  0  0  0  0  0  0  0  0  0
    4.7868   -1.3084   34.1537 H   0  0  0  0  0  0  0  0  0  0  0  0
    5.3771   -3.5567   33.2001 H   0  0  0  0  0  0  0  0  0  0  0  0
    1.4200   -4.0624   30.4150 H   0  0  0  0  0  0  0  0  0  0  0  0
   -0.0344   -5.7822   29.4552 H   0  0  0  0  0  0  0  0  0  0  0  0
   -1.5065   -8.7544   34.8061 H   0  0  0  0  0  0  0  0  0  0  0  0
   -0.4442   -7.5271   35.2254 H   0  0  0  0  0  0  0  0  0  0  0  0
    0.5887   -5.5641   34.3816 H   0  0  0  0  0  0  0  0  0  0  0  0
    1.0078    0.5547   33.0840 H   0  0  0  0  0  0  0  0  0  0  0  0
    2.1111    2.5667   32.7153 H   0  0  0  0  0  0  0  0  0  0  0  0
    3.0838    1.2182   32.1842 H   0  0  0  0  0  0  0  0  0  0  0  0
    3.8015    1.0825   29.8886 H   0  0  0  0  0  0  0  0  0  0  0  0
    3.8767    2.0496   27.6003 H   0  0  0  0  0  0  0  0  0  0  0  0
    0.6673    3.8845   30.9627 H   0  0  0  0  0  0  0  0  0  0  0  0
    1.4569    6.0188   26.8550 H   0  0  0  0  0  0  0  0  0  0  0  0
    0.2834    4.7383   26.4579 H   0  0  0  0  0  0  0  0  0  0  0  0
  1  2  1  0
  2  3  1  0
  3  4  2  0
  3  5  2  0
  5  6  1  0
  6  7  1  0
  7  8  2  0
  8  9  1  0
  9 10  2  0
 10 11  1  0
 11 12  2  0
 12 13  1  0
 13 14  1  0
 14 15  2  0
 15 16  1  0
 16 17  2  0
 17 18  1  0
 18 19  2  0
 19 20  1  0
 19 21  1  0
 21 22  1  0
  3 23  1  0
 23 24  1  0
 24 25  1  0
 25 26  2  0
 26 27  1  0
 27 28  2  0
 28 29  1  0
 29 30  2  0
 29 31  1  0
 31 32  1  0
 32 33  1  0
 12  7  1  0
 22 13  2  0
 30 25  1  0
 21 16  1  0
 33 28  1  0
  1 34  1  0
  1 35  1  0
  1 36  1  0
  2 37  1  0
  2 38  1  0
  6 39  1  0
  9 40  1  0
 10 41  1  0
 14 42  1  0
 15 43  1  0
 20 44  1  0
 20 45  1  0
 22 46  1  0
 23 47  1  0
 24 48  1  0
 24 49  1  0
 26 50  1  0
 27 51  1  0
 30 52  1  0
 32 53  1  0
 32 54  1  0
M  END
>  <Energy>  (922) 
79.735994241860212

>  <compound_id>  (922) 
4453

>  <target_id>  (922) 
1

>  <reference_id>  (922) 
156

>  <inspiration_ids>  (922) 
[156, 163]

>  <energy_score>  (922) 
-89.5105127362375

>  <distance_score>  (922) 
1.2258053818667898

>  <path>  (922) 
/opt/xchem-fragalysis-2/maxwin/BulkDock/SCRATCH/505735/C4453-P156/C4453-P156.minimised.mol

>  <scratch_subdir>  (922) 
/opt/xchem-fragalysis-2/maxwin/BulkDock/SCRATCH/505735/C4453-P156

>  <fragmenstein_runtime>  (922) 
3.2631380558013916

>  <fragmenstein_outcome>  (922) 
too moved

>  <fragmenstein_mode>  (922) 
expansion

>  <fragmenstein_error>  (922) 


$$$$
C4453-P163
     RDKit          3D

 54 58  0  0  0  0  0  0  0  0999 V2000
   -0.3104   -1.3077   28.9454 C   0  0  0  0  0  0  0  0  0  0  0  0
   -0.0673   -0.0802   29.8019 C   0  0  0  0  0  0  0  0  0  0  0  0
    0.8653   -0.4716   31.2709 S   0  0  0  0  0  0  0  0  0  0  0  0
    2.2256   -0.7937   30.8953 O   0  0  0  0  0  0  0  0  0  0  0  0
   -0.0257   -1.3450   32.1908 N   0  0  0  0  0  0  0  0  0  0  0  0
    0.4725   -1.8957   33.5111 N   0  0  0  0  0  0  0  0  0  0  0  0
    1.7946   -2.4056   33.6054 C   0  0  0  0  0  0  0  0  0  0  0  0
    2.7478   -1.5452   34.0523 N   0  0  0  0  0  0  0  0  0  0  0  0
    4.0295   -1.9483   33.9153 C   0  0  0  0  0  0  0  0  0  0  0  0
    4.3704   -3.1805   33.3906 C   0  0  0  0  0  0  0  0  0  0  0  0
    3.4455   -4.0794   32.9932 N   0  0  0  0  0  0  0  0  0  0  0  0
    2.1499   -3.6697   33.0906 C   0  0  0  0  0  0  0  0  0  0  0  0
    1.1913   -4.6233   32.5082 C   0  0  0  0  0  0  0  0  0  0  0  0
    0.9912   -4.6981   31.0616 C   0  0  0  0  0  0  0  0  0  0  0  0
    0.2026   -5.6273   30.4995 C   0  0  0  0  0  0  0  0  0  0  0  0
   -0.4545   -6.5816   31.3124 C   0  0  0  0  0  0  0  0  0  0  0  0
   -1.2204   -7.6122   31.0313 N   0  0  0  0  0  0  0  0  0  0  0  0
   -1.6030   -8.1741   32.2238 N   0  0  0  0  0  0  0  0  0  0  0  0
   -1.0722   -7.4807   33.2094 C   0  0  0  0  0  0  0  0  0  0  0  0
   -1.2076   -7.7277   34.5343 N   0  0  0  0  0  0  0  0  0  0  0  0
   -0.3023   -6.4590   32.6860 N   0  0  0  0  0  0  0  0  0  0  0  0
    0.5154   -5.4964   33.2879 C   0  0  0  0  0  0  0  0  0  0  0  0
    0.9716    0.9418   32.1978 N   0  0  0  0  0  0  0  0  0  0  0  0
    2.1261    1.8208   32.1005 C   0  0  0  0  0  0  0  0  0  0  0  0
    2.2178    2.5358   30.7733 C   0  0  0  0  0  0  0  0  0  0  0  0
    3.1604    2.1102   29.8056 C   0  0  0  0  0  0  0  0  0  0  0  0
    3.2405    2.7238   28.5518 C   0  0  0  0  0  0  0  0  0  0  0  0
    2.3704    3.7577   28.2912 C   0  0  0  0  0  0  0  0  0  0  0  0
    1.4563    4.1843   29.2251 C   0  0  0  0  0  0  0  0  0  0  0  0
    1.3522    3.5984   30.4698 C   0  0  0  0  0  0  0  0  0  0  0  0
    0.6989    5.2165   28.7709 O   0  0  0  0  0  0  0  0  0  0  0  0
    1.2042    5.3605   27.4313 C   0  0  0  0  0  0  0  0  0  0  0  0
    2.2956    4.4617   27.1296 O   0  0  0  0  0  0  0  0  0  0  0  0
   -0.8714   -1.0363   28.0461 H   0  0  0  0  0  0  0  0  0  0  0  0
   -0.8857   -2.0646   29.4880 H   0  0  0  0  0  0  0  0  0  0  0  0
    0.6346   -1.7650   28.6352 H   0  0  0  0  0  0  0  0  0  0  0  0
   -1.0169    0.3632   30.1171 H   0  0  0  0  0  0  0  0  0  0  0  0
    0.4970    0.6638   29.2347 H   0  0  0  0  0  0  0  0  0  0  0  0
   -0.1713   -2.6039   33.8699 H   0  0  0  0  0  0  0  0  0  0  0  0
    4.7865   -1.2426   34.2388 H   0  0  0  0  0  0  0  0  0  0  0  0
    5.4063   -3.4824   33.2845 H   0  0  0  0  0  0  0  0  0  0  0  0
    1.4920   -3.9556   30.4430 H   0  0  0  0  0  0  0  0  0  0  0  0
    0.0455   -5.6345   29.4340 H   0  0  0  0  0  0  0  0  0  0  0  0
   -1.4953   -8.7061   34.7033 H   0  0  0  0  0  0  0  0  0  0  0  0
   -0.4569   -7.4704   35.1626 H   0  0  0  0  0  0  0  0  0  0  0  0
    0.5955   -5.5251   34.3667 H   0  0  0  0  0  0  0  0  0  0  0  0
    0.9494    0.5657   33.1418 H   0  0  0  0  0  0  0  0  0  0  0  0
    2.0542    2.5817   32.8877 H   0  0  0  0  0  0  0  0  0  0  0  0
    3.0527    1.2726   32.3103 H   0  0  0  0  0  0  0  0  0  0  0  0
    3.8247    1.2755   30.0271 H   0  0  0  0  0  0  0  0  0  0  0  0
    3.9546    2.3909   27.8086 H   0  0  0  0  0  0  0  0  0  0  0  0
    0.6111    3.9540   31.1781 H   0  0  0  0  0  0  0  0  0  0  0  0
    1.5544    6.3902   27.2966 H   0  0  0  0  0  0  0  0  0  0  0  0
    0.3888    5.1711   26.7233 H   0  0  0  0  0  0  0  0  0  0  0  0
  1  2  1  0
  2  3  1  0
  3  4  2  0
  3  5  2  0
  5  6  1  0
  6  7  1  0
  7  8  2  0
  8  9  1  0
  9 10  2  0
 10 11  1  0
 11 12  2  0
 12 13  1  0
 13 14  1  0
 14 15  2  0
 15 16  1  0
 16 17  2  0
 17 18  1  0
 18 19  2  0
 19 20  1  0
 19 21  1  0
 21 22  1  0
  3 23  1  0
 23 24  1  0
 24 25  1  0
 25 26  2  0
 26 27  1  0
 27 28  2  0
 28 29  1  0
 29 30  2  0
 29 31  1  0
 31 32  1  0
 32 33  1  0
 12  7  1  0
 22 13  2  0
 30 25  1  0
 21 16  1  0
 33 28  1  0
  1 34  1  0
  1 35  1  0
  1 36  1  0
  2 37  1  0
  2 38  1  0
  6 39  1  0
  9 40  1  0
 10 41  1  0
 14 42  1  0
 15 43  1  0
 20 44  1  0
 20 45  1  0
 22 46  1  0
 23 47  1  0
 24 48  1  0
 24 49  1  0
 26 50  1  0
 27 51  1  0
 30 52  1  0
 32 53  1  0
 32 54  1  0
M  END
>  <Energy>  (923) 
79.441498106839106

>  <compound_id>  (923) 
4453

>  <target_id>  (923) 
1

>  <reference_id>  (923) 
163

>  <inspiration_ids>  (923) 
[156, 163]

>  <energy_score>  (923) 
-89.80500887125993

>  <distance_score>  (923) 
1.2430704186570523

>  <path>  (923) 
/opt/xchem-fragalysis-2/maxwin/BulkDock/SCRATCH/505735/C4453-P163/C4453-P163.minimised.mol

>  <scratch_subdir>  (923) 
/opt/xchem-fragalysis-2/maxwin/BulkDock/SCRATCH/505735/C4453-P163

>  <fragmenstein_runtime>  (923) 
3.178945302963257

>  <fragmenstein_outcome>  (923) 
too moved

>  <fragmenstein_mode>  (923) 
expansion

>  <fragmenstein_error>  (923) 


$$$$
C4417-P156
     RDKit          3D

 55 58  0  0  0  0  0  0  0  0999 V2000
    5.9857   -4.8041   26.7462 C   0  0  0  0  0  0  0  0  0  0  0  0
    4.7117   -4.9321   27.3996 O   0  0  0  0  0  0  0  0  0  0  0  0
    4.6219   -5.0722   28.7490 C   0  0  0  0  0  0  0  0  0  0  0  0
    3.6673   -5.6794   29.2340 O   0  0  0  0  0  0  0  0  0  0  0  0
    5.7300   -4.4418   29.5987 C   0  0  0  0  0  0  0  0  0  0  0  0
    6.6152   -5.4550   30.1056 N   0  0  0  0  0  0  0  0  0  0  0  0
    6.8318   -5.9915   31.5807 C   0  0  0  0  0  0  0  0  0  0  0  0
    6.2425   -5.7270   32.6146 N   0  0  0  0  0  0  0  0  0  0  0  0
    5.0341   -4.8781   32.7490 C   0  0  0  0  0  0  0  0  0  0  0  0
    4.1155   -5.2579   33.9678 C   0  0  0  0  0  0  0  0  0  0  0  0
    2.6999   -5.7366   33.7432 N   0  0  0  0  0  0  0  0  0  0  0  0
    1.7400   -5.4201   32.7524 C   0  0  0  0  0  0  0  0  0  0  0  0
    1.7191   -4.2931   31.9873 C   0  0  0  0  0  0  0  0  0  0  0  0
    2.4268   -3.0815   32.4222 C   0  0  0  0  0  0  0  0  0  0  0  0
    2.1719   -2.5147   33.6718 C   0  0  0  0  0  0  0  0  0  0  0  0
    2.8148   -1.4133   34.1229 N   0  0  0  0  0  0  0  0  0  0  0  0
    3.7050   -0.8799   33.2607 C   0  0  0  0  0  0  0  0  0  0  0  0
    3.9366   -1.4168   32.0047 C   0  0  0  0  0  0  0  0  0  0  0  0
    3.3031   -2.5230   31.5521 N   0  0  0  0  0  0  0  0  0  0  0  0
    0.9308   -4.2801   30.7520 C   0  0  0  0  0  0  0  0  0  0  0  0
    0.0926   -5.2713   30.4186 C   0  0  0  0  0  0  0  0  0  0  0  0
   -0.1332   -6.3136   31.3419 C   0  0  0  0  0  0  0  0  0  0  0  0
   -0.9915   -7.3112   31.3470 N   0  0  0  0  0  0  0  0  0  0  0  0
   -0.9121   -7.9098   32.5771 N   0  0  0  0  0  0  0  0  0  0  0  0
   -0.0021   -7.2756   33.2877 C   0  0  0  0  0  0  0  0  0  0  0  0
    0.2408   -7.4492   34.6080 N   0  0  0  0  0  0  0  0  0  0  0  0
    0.6466   -6.3285   32.4976 N   0  0  0  0  0  0  0  0  0  0  0  0
    7.9107   -7.0143   31.5205 C   0  0  0  0  0  0  0  0  0  0  0  0
    8.5913   -7.6624   32.5788 C   0  0  0  0  0  0  0  0  0  0  0  0
    9.4870   -8.5091   31.9720 C   0  0  0  0  0  0  0  0  0  0  0  0
   10.5234   -9.4314   32.4708 C   0  0  0  0  0  0  0  0  0  0  0  0
    9.3225   -8.4410   30.6250 O   0  0  0  0  0  0  0  0  0  0  0  0
    8.3463   -7.5027   30.3318 N   0  0  0  0  0  0  0  0  0  0  0  0
    6.7573   -5.3903   27.2518 H   0  0  0  0  0  0  0  0  0  0  0  0
    5.8776   -5.1896   25.7288 H   0  0  0  0  0  0  0  0  0  0  0  0
    6.2633   -3.7484   26.6902 H   0  0  0  0  0  0  0  0  0  0  0  0
    6.3049   -3.7292   29.0008 H   0  0  0  0  0  0  0  0  0  0  0  0
    5.2827   -3.8243   30.3733 H   0  0  0  0  0  0  0  0  0  0  0  0
    7.3457   -5.8292   29.4976 H   0  0  0  0  0  0  0  0  0  0  0  0
    4.4355   -4.9031   31.8448 H   0  0  0  0  0  0  0  0  0  0  0  0
    5.3912   -3.8548   32.9052 H   0  0  0  0  0  0  0  0  0  0  0  0
    4.0499   -4.3884   34.6310 H   0  0  0  0  0  0  0  0  0  0  0  0
    4.6181   -6.0352   34.5561 H   0  0  0  0  0  0  0  0  0  0  0  0
    2.5441   -6.6526   34.1647 H   0  0  0  0  0  0  0  0  0  0  0  0
    1.4507   -2.9446   34.3589 H   0  0  0  0  0  0  0  0  0  0  0  0
    4.2259    0.0076   33.6029 H   0  0  0  0  0  0  0  0  0  0  0  0
    4.6447   -0.9599   31.3224 H   0  0  0  0  0  0  0  0  0  0  0  0
    1.0963   -3.4544   30.0626 H   0  0  0  0  0  0  0  0  0  0  0  0
   -0.4413   -5.2516   29.4768 H   0  0  0  0  0  0  0  0  0  0  0  0
    0.4591   -6.6149   35.1516 H   0  0  0  0  0  0  0  0  0  0  0  0
   -0.4617   -8.0177   35.0838 H   0  0  0  0  0  0  0  0  0  0  0  0
    8.4562   -7.5016   33.6378 H   0  0  0  0  0  0  0  0  0  0  0  0
   10.1782   -9.9493   33.3710 H   0  0  0  0  0  0  0  0  0  0  0  0
   11.4344   -8.8788   32.7197 H   0  0  0  0  0  0  0  0  0  0  0  0
   10.7768  -10.1884   31.7221 H   0  0  0  0  0  0  0  0  0  0  0  0
  1  2  1  0
  2  3  1  0
  3  4  2  0
  3  5  1  0
  5  6  1  0
  6  7  1  0
  7  8  2  3
  8  9  1  0
  9 10  1  0
 10 11  1  0
 11 12  1  0
 12 13  2  0
 13 14  1  0
 14 15  2  0
 15 16  1  0
 16 17  2  0
 17 18  1  0
 18 19  2  0
 13 20  1  0
 20 21  2  0
 21 22  1  0
 22 23  2  0
 23 24  1  0
 24 25  2  0
 25 26  1  0
 25 27  1  0
  7 28  1  0
 28 29  1  0
 29 30  2  0
 30 31  1  0
 30 32  1  0
 32 33  1  0
 27 12  1  0
 33 28  2  0
 19 14  1  0
 27 22  1  0
  1 34  1  0
  1 35  1  0
  1 36  1  0
  5 37  1  0
  5 38  1  0
  6 39  1  0
  9 40  1  0
  9 41  1  0
 10 42  1  0
 10 43  1  0
 11 44  1  0
 15 45  1  0
 17 46  1  0
 18 47  1  0
 20 48  1  0
 21 49  1  0
 26 50  1  0
 26 51  1  0
 29 52  1  0
 31 53  1  0
 31 54  1  0
 31 55  1  0
M  END
>  <Energy>  (924) 
231.21739691085571

>  <compound_id>  (924) 
4417

>  <target_id>  (924) 
1

>  <reference_id>  (924) 
156

>  <inspiration_ids>  (924) 
[156, 175]

>  <energy_score>  (924) 
-51.47922272464132

>  <distance_score>  (924) 
2.8053155992680496

>  <path>  (924) 
/opt/xchem-fragalysis-2/maxwin/BulkDock/SCRATCH/505735/C4417-P156/C4417-P156.minimised.mol

>  <scratch_subdir>  (924) 
/opt/xchem-fragalysis-2/maxwin/BulkDock/SCRATCH/505735/C4417-P156

>  <fragmenstein_runtime>  (924) 
8.799953699111938

>  <fragmenstein_outcome>  (924) 
too moved

>  <fragmenstein_mode>  (924) 
expansion

>  <fragmenstein_error>  (924) 


$$$$
C4417-P175
     RDKit          3D

 55 58  0  0  0  0  0  0  0  0999 V2000
    4.4629   -4.8089   28.6783 C   0  0  0  0  0  0  0  0  0  0  0  0
    5.3638   -4.8729   29.7821 O   0  0  0  0  0  0  0  0  0  0  0  0
    5.9742   -3.6877   30.0636 C   0  0  0  0  0  0  0  0  0  0  0  0
    5.7956   -2.6444   29.4407 O   0  0  0  0  0  0  0  0  0  0  0  0
    6.8900   -3.7699   31.2770 C   0  0  0  0  0  0  0  0  0  0  0  0
    7.4552   -5.0745   31.4910 N   0  0  0  0  0  0  0  0  0  0  0  0
    7.0320   -6.2284   32.4822 C   0  0  0  0  0  0  0  0  0  0  0  0
    6.1791   -6.2524   33.3519 N   0  0  0  0  0  0  0  0  0  0  0  0
    5.1274   -5.2180   33.5240 C   0  0  0  0  0  0  0  0  0  0  0  0
    3.9382   -5.6331   34.4692 C   0  0  0  0  0  0  0  0  0  0  0  0
    2.6388   -6.1253   33.9093 N   0  0  0  0  0  0  0  0  0  0  0  0
    1.7382   -5.6558   32.9231 C   0  0  0  0  0  0  0  0  0  0  0  0
    1.8201   -4.4935   32.2150 C   0  0  0  0  0  0  0  0  0  0  0  0
    2.5801   -3.3337   32.6967 C   0  0  0  0  0  0  0  0  0  0  0  0
    2.2834   -2.7410   33.9226 C   0  0  0  0  0  0  0  0  0  0  0  0
    2.8864   -1.6092   34.3549 N   0  0  0  0  0  0  0  0  0  0  0  0
    3.7601   -1.0583   33.4856 C   0  0  0  0  0  0  0  0  0  0  0  0
    4.0313   -1.6213   32.2509 C   0  0  0  0  0  0  0  0  0  0  0  0
    3.4613   -2.7747   31.8342 N   0  0  0  0  0  0  0  0  0  0  0  0
    1.0362   -4.3389   30.9818 C   0  0  0  0  0  0  0  0  0  0  0  0
    0.1355   -5.2401   30.5732 C   0  0  0  0  0  0  0  0  0  0  0  0
   -0.1426   -6.3444   31.4004 C   0  0  0  0  0  0  0  0  0  0  0  0
   -1.0145   -7.3202   31.2825 N   0  0  0  0  0  0  0  0  0  0  0  0
   -0.9915   -8.0231   32.4558 N   0  0  0  0  0  0  0  0  0  0  0  0
   -0.1153   -7.4607   33.2619 C   0  0  0  0  0  0  0  0  0  0  0  0
    0.0497   -7.7358   34.5800 N   0  0  0  0  0  0  0  0  0  0  0  0
    0.5964   -6.4789   32.5764 N   0  0  0  0  0  0  0  0  0  0  0  0
    7.8419   -7.4383   32.1377 C   0  0  0  0  0  0  0  0  0  0  0  0
    8.0012   -8.6502   32.8589 C   0  0  0  0  0  0  0  0  0  0  0  0
    8.6928   -9.4903   32.0191 C   0  0  0  0  0  0  0  0  0  0  0  0
    9.1559  -10.8855   32.1106 C   0  0  0  0  0  0  0  0  0  0  0  0
    8.9558   -8.8412   30.8581 O   0  0  0  0  0  0  0  0  0  0  0  0
    8.4332   -7.5596   30.9223 N   0  0  0  0  0  0  0  0  0  0  0  0
    5.0037   -4.5738   27.7563 H   0  0  0  0  0  0  0  0  0  0  0  0
    3.9967   -5.7918   28.5652 H   0  0  0  0  0  0  0  0  0  0  0  0
    3.6734   -4.0739   28.8640 H   0  0  0  0  0  0  0  0  0  0  0  0
    7.7235   -3.0852   31.0835 H   0  0  0  0  0  0  0  0  0  0  0  0
    6.3702   -3.3922   32.1552 H   0  0  0  0  0  0  0  0  0  0  0  0
    8.1535   -5.4295   30.8356 H   0  0  0  0  0  0  0  0  0  0  0  0
    4.7314   -4.9423   32.5484 H   0  0  0  0  0  0  0  0  0  0  0  0
    5.6045   -4.3452   33.9837 H   0  0  0  0  0  0  0  0  0  0  0  0
    3.6994   -4.7791   35.1118 H   0  0  0  0  0  0  0  0  0  0  0  0
    4.3051   -6.4152   35.1450 H   0  0  0  0  0  0  0  0  0  0  0  0
    2.2277   -6.8741   34.4757 H   0  0  0  0  0  0  0  0  0  0  0  0
    1.5417   -3.1584   34.5957 H   0  0  0  0  0  0  0  0  0  0  0  0
    4.2313   -0.1349   33.8038 H   0  0  0  0  0  0  0  0  0  0  0  0
    4.7142   -1.1472   31.5532 H   0  0  0  0  0  0  0  0  0  0  0  0
    1.2340   -3.4588   30.3712 H   0  0  0  0  0  0  0  0  0  0  0  0
   -0.4154   -5.0978   29.6519 H   0  0  0  0  0  0  0  0  0  0  0  0
   -0.1204   -6.9580   35.2135 H   0  0  0  0  0  0  0  0  0  0  0  0
   -0.5662   -8.5138   34.8779 H   0  0  0  0  0  0  0  0  0  0  0  0
    7.6138   -8.8811   33.8398 H   0  0  0  0  0  0  0  0  0  0  0  0
    8.9057  -11.3195   33.0836 H   0  0  0  0  0  0  0  0  0  0  0  0
   10.2413  -10.9391   31.9828 H   0  0  0  0  0  0  0  0  0  0  0  0
    8.6857  -11.4972   31.3345 H   0  0  0  0  0  0  0  0  0  0  0  0
  1  2  1  0
  2  3  1  0
  3  4  2  0
  3  5  1  0
  5  6  1  0
  6  7  1  0
  7  8  2  3
  8  9  1  0
  9 10  1  0
 10 11  1  0
 11 12  1  0
 12 13  2  0
 13 14  1  0
 14 15  2  0
 15 16  1  0
 16 17  2  0
 17 18  1  0
 18 19  2  0
 13 20  1  0
 20 21  2  0
 21 22  1  0
 22 23  2  0
 23 24  1  0
 24 25  2  0
 25 26  1  0
 25 27  1  0
  7 28  1  0
 28 29  1  0
 29 30  2  0
 30 31  1  0
 30 32  1  0
 32 33  1  0
 27 12  1  0
 33 28  2  0
 19 14  1  0
 27 22  1  0
  1 34  1  0
  1 35  1  0
  1 36  1  0
  5 37  1  0
  5 38  1  0
  6 39  1  0
  9 40  1  0
  9 41  1  0
 10 42  1  0
 10 43  1  0
 11 44  1  0
 15 45  1  0
 17 46  1  0
 18 47  1  0
 20 48  1  0
 21 49  1  0
 26 50  1  0
 26 51  1  0
 29 52  1  0
 31 53  1  0
 31 54  1  0
 31 55  1  0
M  END
>  <Energy>  (925) 
220.30295230062953

>  <compound_id>  (925) 
4417

>  <target_id>  (925) 
1

>  <reference_id>  (925) 
175

>  <inspiration_ids>  (925) 
[156, 175]

>  <energy_score>  (925) 
-62.39366733486719

>  <distance_score>  (925) 
2.956835276404826

>  <path>  (925) 
/opt/xchem-fragalysis-2/maxwin/BulkDock/SCRATCH/505735/C4417-P175/C4417-P175.minimised.mol

>  <scratch_subdir>  (925) 
/opt/xchem-fragalysis-2/maxwin/BulkDock/SCRATCH/505735/C4417-P175

>  <fragmenstein_runtime>  (925) 
10.746528148651123

>  <fragmenstein_outcome>  (925) 
too moved

>  <fragmenstein_mode>  (925) 
expansion

>  <fragmenstein_error>  (925) 


$$$$
C4455-P156
     RDKit          3D

 58 62  0  0  0  0  0  0  0  0999 V2000
    3.5605    2.2516   27.0588 C   0  0  0  0  0  0  0  0  0  0  0  0
    4.3894    1.2664   27.8810 C   0  0  0  0  0  0  0  0  0  0  0  0
    4.5862    1.7772   29.3077 C   0  0  0  0  0  0  0  0  0  0  0  0
    3.7715   -0.0869   27.8814 C   0  0  0  0  0  0  0  0  0  0  0  0
    4.2702   -1.2361   27.4809 N   0  0  0  0  0  0  0  0  0  0  0  0
    3.2444   -2.1091   27.7639 C   0  0  0  0  0  0  0  0  0  0  0  0
    3.3174   -3.5943   27.4978 C   0  0  0  0  0  0  0  0  0  0  0  0
    4.7210   -4.1868   27.3756 C   0  0  0  0  0  0  0  0  0  0  0  0
    4.8315   -5.1608   28.5469 C   0  0  0  0  0  0  0  0  0  0  0  0
    3.7989   -4.6442   29.5289 C   0  0  0  0  0  0  0  0  0  0  0  0
    4.3281   -3.4149   30.3068 C   0  0  0  0  0  0  0  0  0  0  0  0
    5.2479   -3.7754   31.4876 C   0  0  0  0  0  0  0  0  0  0  0  0
    5.1197   -2.7913   32.5682 N   0  0  0  0  0  0  0  0  0  0  0  0
    3.8697   -2.8338   33.2075 C   0  0  0  0  0  0  0  0  0  0  0  0
    3.5077   -1.8758   34.1495 C   0  0  0  0  0  0  0  0  0  0  0  0
    2.2715   -1.8084   34.7111 N   0  0  0  0  0  0  0  0  0  0  0  0
    1.3809   -2.7227   34.2577 C   0  0  0  0  0  0  0  0  0  0  0  0
    1.7224   -3.6858   33.3248 C   0  0  0  0  0  0  0  0  0  0  0  0
    0.7971   -4.6562   32.7310 C   0  0  0  0  0  0  0  0  0  0  0  0
    0.6400   -4.7579   31.2769 C   0  0  0  0  0  0  0  0  0  0  0  0
   -0.0213   -5.7686   30.6906 C   0  0  0  0  0  0  0  0  0  0  0  0
   -0.6340   -6.7539   31.4993 C   0  0  0  0  0  0  0  0  0  0  0  0
   -1.3188   -7.8377   31.2121 N   0  0  0  0  0  0  0  0  0  0  0  0
   -1.7072   -8.4002   32.4030 N   0  0  0  0  0  0  0  0  0  0  0  0
   -1.2655   -7.6531   33.3926 C   0  0  0  0  0  0  0  0  0  0  0  0
   -1.4441   -7.8690   34.7185 N   0  0  0  0  0  0  0  0  0  0  0  0
   -0.5544   -6.5900   32.8759 N   0  0  0  0  0  0  0  0  0  0  0  0
    0.1592   -5.5646   33.4960 C   0  0  0  0  0  0  0  0  0  0  0  0
    2.9753   -3.7679   32.8303 N   0  0  0  0  0  0  0  0  0  0  0  0
    2.6870   -4.3434   28.6083 N   0  0  0  0  0  0  0  0  0  0  0  0
    2.1626   -1.5309   28.3143 N   0  0  0  0  0  0  0  0  0  0  0  0
    2.5111   -0.1890   28.3906 O   0  0  0  0  0  0  0  0  0  0  0  0
    4.0614    3.2238   26.9993 H   0  0  0  0  0  0  0  0  0  0  0  0
    3.4128    1.8855   26.0371 H   0  0  0  0  0  0  0  0  0  0  0  0
    2.5690    2.4106   27.4980 H   0  0  0  0  0  0  0  0  0  0  0  0
    5.3802    1.1830   27.4192 H   0  0  0  0  0  0  0  0  0  0  0  0
    5.1942    1.0785   29.8936 H   0  0  0  0  0  0  0  0  0  0  0  0
    3.6299    1.9009   29.8286 H   0  0  0  0  0  0  0  0  0  0  0  0
    5.0962    2.7465   29.3056 H   0  0  0  0  0  0  0  0  0  0  0  0
    2.8015   -3.8514   26.5821 H   0  0  0  0  0  0  0  0  0  0  0  0
    4.8497   -4.7300   26.4322 H   0  0  0  0  0  0  0  0  0  0  0  0
    5.5149   -3.4347   27.4306 H   0  0  0  0  0  0  0  0  0  0  0  0
    5.8462   -5.1958   28.9550 H   0  0  0  0  0  0  0  0  0  0  0  0
    4.5735   -6.1745   28.2134 H   0  0  0  0  0  0  0  0  0  0  0  0
    3.4709   -5.4152   30.2269 H   0  0  0  0  0  0  0  0  0  0  0  0
    4.9124   -2.7443   29.6674 H   0  0  0  0  0  0  0  0  0  0  0  0
    3.4684   -2.8176   30.6291 H   0  0  0  0  0  0  0  0  0  0  0  0
    5.0664   -4.7833   31.8721 H   0  0  0  0  0  0  0  0  0  0  0  0
    6.2878   -3.7680   31.1398 H   0  0  0  0  0  0  0  0  0  0  0  0
    5.8633   -2.8504   33.2580 H   0  0  0  0  0  0  0  0  0  0  0  0
    4.2028   -1.1032   34.4595 H   0  0  0  0  0  0  0  0  0  0  0  0
    0.3770   -2.6384   34.6583 H   0  0  0  0  0  0  0  0  0  0  0  0
    1.0823   -3.9678   30.6718 H   0  0  0  0  0  0  0  0  0  0  0  0
   -0.1271   -5.8126   29.6153 H   0  0  0  0  0  0  0  0  0  0  0  0
   -1.6344   -8.8618   34.9183 H   0  0  0  0  0  0  0  0  0  0  0  0
   -0.7478   -7.5195   35.3698 H   0  0  0  0  0  0  0  0  0  0  0  0
    0.2135   -5.5828   34.5769 H   0  0  0  0  0  0  0  0  0  0  0  0
    2.3232   -5.2168   28.2302 H   0  0  0  0  0  0  0  0  0  0  0  0
  1  2  1  0
  2  3  1  0
  2  4  1  0
  4  5  2  0
  5  6  1  0
  6  7  1  0
  7  8  1  0
  8  9  1  0
  9 10  1  0
 10 11  1  0
 11 12  1  0
 12 13  1  0
 13 14  1  0
 14 15  2  0
 15 16  1  0
 16 17  2  0
 17 18  1  0
 18 19  1  0
 19 20  1  0
 20 21  2  0
 21 22  1  0
 22 23  2  0
 23 24  1  0
 24 25  2  0
 25 26  1  0
 25 27  1  0
 27 28  1  0
 18 29  2  0
 10 30  1  0
  6 31  2  0
 31 32  1  0
 32  4  1  0
 30  7  1  0
 29 14  1  0
 28 19  2  0
 27 22  1  0
  1 33  1  0
  1 34  1  0
  1 35  1  0
  2 36  1  0
  3 37  1  0
  3 38  1  0
  3 39  1  0
  7 40  1  0
  8 41  1  0
  8 42  1  0
  9 43  1  0
  9 44  1  0
 10 45  1  0
 11 46  1  0
 11 47  1  0
 12 48  1  0
 12 49  1  0
 13 50  1  0
 15 51  1  0
 17 52  1  0
 20 53  1  0
 21 54  1  0
 26 55  1  0
 26 56  1  0
 28 57  1  0
 30 58  1  0
M  END
>  <Energy>  (926) 
129.53852923527924

>  <compound_id>  (926) 
4455

>  <target_id>  (926) 
1

>  <reference_id>  (926) 
156

>  <inspiration_ids>  (926) 
[156, 177]

>  <energy_score>  (926) 
-64.54829442562016

>  <distance_score>  (926) 
1.5485028262466503

>  <path>  (926) 
/opt/xchem-fragalysis-2/maxwin/BulkDock/SCRATCH/505735/C4455-P156/C4455-P156.minimised.mol

>  <scratch_subdir>  (926) 
/opt/xchem-fragalysis-2/maxwin/BulkDock/SCRATCH/505735/C4455-P156

>  <fragmenstein_runtime>  (926) 
7.391984462738037

>  <fragmenstein_outcome>  (926) 
too moved

>  <fragmenstein_mode>  (926) 
expansion

>  <fragmenstein_error>  (926) 


$$$$
C4455-P177
     RDKit          3D

 58 62  0  0  0  0  0  0  0  0999 V2000
    0.5323    2.4783   29.5118 C   0  0  0  0  0  0  0  0  0  0  0  0
    1.6505    1.7198   28.8016 C   0  0  0  0  0  0  0  0  0  0  0  0
    2.8473    1.5603   29.7434 C   0  0  0  0  0  0  0  0  0  0  0  0
    1.2202    0.3852   28.2925 C   0  0  0  0  0  0  0  0  0  0  0  0
    1.9517   -0.5320   27.7054 N   0  0  0  0  0  0  0  0  0  0  0  0
    1.0494   -1.5421   27.4826 C   0  0  0  0  0  0  0  0  0  0  0  0
    1.4232   -2.8494   26.8376 C   0  0  0  0  0  0  0  0  0  0  0  0
    2.7535   -2.8650   26.0772 C   0  0  0  0  0  0  0  0  0  0  0  0
    3.6402   -3.8617   26.8237 C   0  0  0  0  0  0  0  0  0  0  0  0
    3.0270   -3.9378   28.2065 C   0  0  0  0  0  0  0  0  0  0  0  0
    3.5171   -2.7911   29.1250 C   0  0  0  0  0  0  0  0  0  0  0  0
    4.7650   -3.1545   29.9531 C   0  0  0  0  0  0  0  0  0  0  0  0
    4.9073   -2.2905   31.1399 N   0  0  0  0  0  0  0  0  0  0  0  0
    3.9824   -2.5395   32.1653 C   0  0  0  0  0  0  0  0  0  0  0  0
    3.9099   -1.7342   33.3000 C   0  0  0  0  0  0  0  0  0  0  0  0
    2.9367   -1.8485   34.2467 N   0  0  0  0  0  0  0  0  0  0  0  0
    1.9879   -2.7801   33.9888 C   0  0  0  0  0  0  0  0  0  0  0  0
    2.0437   -3.5972   32.8737 C   0  0  0  0  0  0  0  0  0  0  0  0
    1.0118   -4.5549   32.4481 C   0  0  0  0  0  0  0  0  0  0  0  0
    0.7048   -4.7057   31.0199 C   0  0  0  0  0  0  0  0  0  0  0  0
   -0.0534   -5.6934   30.5263 C   0  0  0  0  0  0  0  0  0  0  0  0
   -0.6476   -6.5989   31.4270 C   0  0  0  0  0  0  0  0  0  0  0  0
   -1.4069   -7.6507   31.2402 N   0  0  0  0  0  0  0  0  0  0  0  0
   -1.7347   -8.1272   32.4790 N   0  0  0  0  0  0  0  0  0  0  0  0
   -1.1853   -7.3647   33.3979 C   0  0  0  0  0  0  0  0  0  0  0  0
   -1.2770   -7.5311   34.7383 N   0  0  0  0  0  0  0  0  0  0  0  0
   -0.4505   -6.3779   32.7841 N   0  0  0  0  0  0  0  0  0  0  0  0
    0.3801   -5.3838   33.3027 C   0  0  0  0  0  0  0  0  0  0  0  0
    3.0704   -3.5096   31.9965 N   0  0  0  0  0  0  0  0  0  0  0  0
    1.5836   -3.8992   27.8765 N   0  0  0  0  0  0  0  0  0  0  0  0
   -0.1987   -1.2710   27.8986 N   0  0  0  0  0  0  0  0  0  0  0  0
   -0.0858    0.0123   28.4397 O   0  0  0  0  0  0  0  0  0  0  0  0
    0.8759    3.4669   29.8348 H   0  0  0  0  0  0  0  0  0  0  0  0
   -0.3296    2.6262   28.8526 H   0  0  0  0  0  0  0  0  0  0  0  0
    0.1858    1.9361   30.3991 H   0  0  0  0  0  0  0  0  0  0  0  0
    1.9755    2.3166   27.9412 H   0  0  0  0  0  0  0  0  0  0  0  0
    3.6887    1.0760   29.2348 H   0  0  0  0  0  0  0  0  0  0  0  0
    2.5914    0.9468   30.6152 H   0  0  0  0  0  0  0  0  0  0  0  0
    3.1933    2.5352   30.1033 H   0  0  0  0  0  0  0  0  0  0  0  0
    0.6065   -3.1267   26.1614 H   0  0  0  0  0  0  0  0  0  0  0  0
    2.6128   -3.1951   25.0425 H   0  0  0  0  0  0  0  0  0  0  0  0
    3.2375   -1.8835   26.0376 H   0  0  0  0  0  0  0  0  0  0  0  0
    4.6901   -3.5523   26.8265 H   0  0  0  0  0  0  0  0  0  0  0  0
    3.5860   -4.8401   26.3293 H   0  0  0  0  0  0  0  0  0  0  0  0
    3.2425   -4.9008   28.6708 H   0  0  0  0  0  0  0  0  0  0  0  0
    2.6970   -2.4780   29.7770 H   0  0  0  0  0  0  0  0  0  0  0  0
    3.7804   -1.9029   28.5405 H   0  0  0  0  0  0  0  0  0  0  0  0
    4.7726   -4.2073   30.2529 H   0  0  0  0  0  0  0  0  0  0  0  0
    5.6520   -3.0137   29.3239 H   0  0  0  0  0  0  0  0  0  0  0  0
    5.8517   -2.2849   31.5131 H   0  0  0  0  0  0  0  0  0  0  0  0
    4.6224   -0.9327   33.4620 H   0  0  0  0  0  0  0  0  0  0  0  0
    1.1693   -2.8206   34.6977 H   0  0  0  0  0  0  0  0  0  0  0  0
    1.1145   -3.9601   30.3483 H   0  0  0  0  0  0  0  0  0  0  0  0
   -0.2424   -5.7806   29.4624 H   0  0  0  0  0  0  0  0  0  0  0  0
   -1.4851   -8.5158   34.9523 H   0  0  0  0  0  0  0  0  0  0  0  0
   -0.5306   -7.1876   35.3320 H   0  0  0  0  0  0  0  0  0  0  0  0
    0.5165   -5.3669   34.3755 H   0  0  0  0  0  0  0  0  0  0  0  0
    1.3502   -4.7874   27.4327 H   0  0  0  0  0  0  0  0  0  0  0  0
  1  2  1  0
  2  3  1  0
  2  4  1  0
  4  5  2  0
  5  6  1  0
  6  7  1  0
  7  8  1  0
  8  9  1  0
  9 10  1  0
 10 11  1  0
 11 12  1  0
 12 13  1  0
 13 14  1  0
 14 15  2  0
 15 16  1  0
 16 17  2  0
 17 18  1  0
 18 19  1  0
 19 20  1  0
 20 21  2  0
 21 22  1  0
 22 23  2  0
 23 24  1  0
 24 25  2  0
 25 26  1  0
 25 27  1  0
 27 28  1  0
 18 29  2  0
 10 30  1  0
  6 31  2  0
 31 32  1  0
 32  4  1  0
 30  7  1  0
 29 14  1  0
 28 19  2  0
 27 22  1  0
  1 33  1  0
  1 34  1  0
  1 35  1  0
  2 36  1  0
  3 37  1  0
  3 38  1  0
  3 39  1  0
  7 40  1  0
  8 41  1  0
  8 42  1  0
  9 43  1  0
  9 44  1  0
 10 45  1  0
 11 46  1  0
 11 47  1  0
 12 48  1  0
 12 49  1  0
 13 50  1  0
 15 51  1  0
 17 52  1  0
 20 53  1  0
 21 54  1  0
 26 55  1  0
 26 56  1  0
 28 57  1  0
 30 58  1  0
M  END
>  <Energy>  (927) 
128.84241466596876

>  <compound_id>  (927) 
4455

>  <target_id>  (927) 
1

>  <reference_id>  (927) 
177

>  <inspiration_ids>  (927) 
[156, 177]

>  <energy_score>  (927) 
-65.24440899493058

>  <distance_score>  (927) 
1.1372121128317139

>  <path>  (927) 
/opt/xchem-fragalysis-2/maxwin/BulkDock/SCRATCH/505735/C4455-P177/C4455-P177.minimised.mol

>  <scratch_subdir>  (927) 
/opt/xchem-fragalysis-2/maxwin/BulkDock/SCRATCH/505735/C4455-P177

>  <fragmenstein_runtime>  (927) 
4.656608819961548

>  <fragmenstein_outcome>  (927) 
too moved

>  <fragmenstein_mode>  (927) 
expansion

>  <fragmenstein_error>  (927) 


$$$$
C4456-P156
     RDKit          3D

 33 35  0  0  0  0  0  0  0  0999 V2000
   -0.8587   -1.2884   29.9098 C   0  0  0  0  0  0  0  0  0  0  0  0
   -1.2821   -1.5778   31.6124 S   0  0  0  0  0  0  0  0  0  0  0  0
   -1.5480   -2.9916   31.7790 O   0  0  0  0  0  0  0  0  0  0  0  0
   -2.2676   -0.5916   31.9970 O   0  0  0  0  0  0  0  0  0  0  0  0
    0.1298   -1.0779   32.4040 N   0  0  0  0  0  0  0  0  0  0  0  0
    1.2419   -1.9276   32.5995 C   0  0  0  0  0  0  0  0  0  0  0  0
    2.5248   -1.5628   32.2116 C   0  0  0  0  0  0  0  0  0  0  0  0
    3.4905   -2.5570   32.1866 C   0  0  0  0  0  0  0  0  0  0  0  0
    3.2177   -3.8579   32.4281 N   0  0  0  0  0  0  0  0  0  0  0  0
    1.9706   -4.1360   32.8688 C   0  0  0  0  0  0  0  0  0  0  0  0
    1.3598   -5.4136   32.4657 C   0  0  0  0  0  0  0  0  0  0  0  0
    1.2065   -5.7065   31.0364 C   0  0  0  0  0  0  0  0  0  0  0  0
    0.2844   -6.5708   30.5904 C   0  0  0  0  0  0  0  0  0  0  0  0
   -0.5182   -7.2742   31.5088 C   0  0  0  0  0  0  0  0  0  0  0  0
   -1.4475   -8.1838   31.3450 N   0  0  0  0  0  0  0  0  0  0  0  0
   -1.9076   -8.5094   32.5922 N   0  0  0  0  0  0  0  0  0  0  0  0
   -1.2687   -7.7935   33.4909 C   0  0  0  0  0  0  0  0  0  0  0  0
   -1.4269   -7.8545   34.8341 N   0  0  0  0  0  0  0  0  0  0  0  0
   -0.3372   -7.0053   32.8553 N   0  0  0  0  0  0  0  0  0  0  0  0
    0.5900   -6.0908   33.3437 C   0  0  0  0  0  0  0  0  0  0  0  0
    1.0169   -3.1729   33.1254 C   0  0  0  0  0  0  0  0  0  0  0  0
   -1.7324   -1.5173   29.2970 H   0  0  0  0  0  0  0  0  0  0  0  0
   -0.5832   -0.2396   29.7852 H   0  0  0  0  0  0  0  0  0  0  0  0
   -0.0330   -1.9470   29.6337 H   0  0  0  0  0  0  0  0  0  0  0  0
    0.2759   -0.0693   32.3923 H   0  0  0  0  0  0  0  0  0  0  0  0
    2.7618   -0.5612   31.8745 H   0  0  0  0  0  0  0  0  0  0  0  0
    4.5119   -2.3428   31.8843 H   0  0  0  0  0  0  0  0  0  0  0  0
    1.8226   -5.1495   30.3348 H   0  0  0  0  0  0  0  0  0  0  0  0
    0.1271   -6.7420   29.5440 H   0  0  0  0  0  0  0  0  0  0  0  0
   -0.6711   -7.5509   35.4386 H   0  0  0  0  0  0  0  0  0  0  0  0
   -1.7489   -8.7875   35.1204 H   0  0  0  0  0  0  0  0  0  0  0  0
    0.5542   -5.8738   34.4042 H   0  0  0  0  0  0  0  0  0  0  0  0
    0.0252   -3.4493   33.4712 H   0  0  0  0  0  0  0  0  0  0  0  0
  1  2  1  0
  2  3  2  0
  2  4  2  0
  2  5  1  0
  5  6  1  0
  6  7  2  0
  7  8  1  0
  8  9  2  0
  9 10  1  0
 10 11  1  0
 11 12  1  0
 12 13  2  0
 13 14  1  0
 14 15  2  0
 15 16  1  0
 16 17  2  0
 17 18  1  0
 17 19  1  0
 19 20  1  0
 10 21  2  0
 21  6  1  0
 20 11  2  0
 19 14  1  0
  1 22  1  0
  1 23  1  0
  1 24  1  0
  5 25  1  0
  7 26  1  0
  8 27  1  0
 12 28  1  0
 13 29  1  0
 18 30  1  0
 18 31  1  0
 20 32  1  0
 21 33  1  0
M  END
>  <Energy>  (928) 
5.7911757797821348

>  <compound_id>  (928) 
4456

>  <target_id>  (928) 
1

>  <reference_id>  (928) 
156

>  <inspiration_ids>  (928) 
[156, 189]

>  <energy_score>  (928) 
-24.09795245789931

>  <distance_score>  (928) 
1.4589557343523087

>  <path>  (928) 
/opt/xchem-fragalysis-2/maxwin/BulkDock/SCRATCH/505735/C4456-P156/C4456-P156.minimised.mol

>  <scratch_subdir>  (928) 
/opt/xchem-fragalysis-2/maxwin/BulkDock/SCRATCH/505735/C4456-P156

>  <fragmenstein_runtime>  (928) 
2.806874990463257

>  <fragmenstein_outcome>  (928) 
too moved

>  <fragmenstein_mode>  (928) 
expansion

>  <fragmenstein_error>  (928) 


$$$$
C4456-P189
     RDKit          3D

 33 35  0  0  0  0  0  0  0  0999 V2000
   -0.9383   -1.3158   29.8878 C   0  0  0  0  0  0  0  0  0  0  0  0
   -1.3309   -1.5715   31.6026 S   0  0  0  0  0  0  0  0  0  0  0  0
   -1.5751   -2.9842   31.8028 O   0  0  0  0  0  0  0  0  0  0  0  0
   -2.3237   -0.5886   31.9782 O   0  0  0  0  0  0  0  0  0  0  0  0
    0.0819   -1.0352   32.3627 N   0  0  0  0  0  0  0  0  0  0  0  0
    1.1952   -1.8663   32.6191 C   0  0  0  0  0  0  0  0  0  0  0  0
    2.4857   -1.4874   32.2694 C   0  0  0  0  0  0  0  0  0  0  0  0
    3.4714   -2.4601   32.3125 C   0  0  0  0  0  0  0  0  0  0  0  0
    3.2137   -3.7575   32.5825 N   0  0  0  0  0  0  0  0  0  0  0  0
    1.9538   -4.0501   32.9801 C   0  0  0  0  0  0  0  0  0  0  0  0
    1.3835   -5.3382   32.5508 C   0  0  0  0  0  0  0  0  0  0  0  0
    1.3976   -5.6730   31.1264 C   0  0  0  0  0  0  0  0  0  0  0  0
    0.5506   -6.5687   30.6030 C   0  0  0  0  0  0  0  0  0  0  0  0
   -0.3571   -7.2501   31.4380 C   0  0  0  0  0  0  0  0  0  0  0  0
   -1.2681   -8.1625   31.1950 N   0  0  0  0  0  0  0  0  0  0  0  0
   -1.8324   -8.4923   32.3994 N   0  0  0  0  0  0  0  0  0  0  0  0
   -1.2713   -7.7755   33.3500 C   0  0  0  0  0  0  0  0  0  0  0  0
   -1.5117   -7.8603   34.6818 N   0  0  0  0  0  0  0  0  0  0  0  0
   -0.3123   -6.9621   32.7929 N   0  0  0  0  0  0  0  0  0  0  0  0
    0.5416   -6.0185   33.3571 C   0  0  0  0  0  0  0  0  0  0  0  0
    0.9749   -3.0990   33.1772 C   0  0  0  0  0  0  0  0  0  0  0  0
   -1.8240   -1.5631   29.2983 H   0  0  0  0  0  0  0  0  0  0  0  0
   -0.6722   -0.2682   29.7356 H   0  0  0  0  0  0  0  0  0  0  0  0
   -0.1137   -1.9753   29.6112 H   0  0  0  0  0  0  0  0  0  0  0  0
    0.2111   -0.0246   32.3416 H   0  0  0  0  0  0  0  0  0  0  0  0
    2.7158   -0.4912   31.9123 H   0  0  0  0  0  0  0  0  0  0  0  0
    4.4997   -2.2336   32.0450 H   0  0  0  0  0  0  0  0  0  0  0  0
    2.1084   -5.1520   30.4895 H   0  0  0  0  0  0  0  0  0  0  0  0
    0.5919   -6.8096   29.5604 H   0  0  0  0  0  0  0  0  0  0  0  0
   -0.7969   -7.5413   35.3271 H   0  0  0  0  0  0  0  0  0  0  0  0
   -1.7945   -8.8178   34.9260 H   0  0  0  0  0  0  0  0  0  0  0  0
    0.3934   -5.7873   34.4048 H   0  0  0  0  0  0  0  0  0  0  0  0
   -0.0215   -3.3855   33.4984 H   0  0  0  0  0  0  0  0  0  0  0  0
  1  2  1  0
  2  3  2  0
  2  4  2  0
  2  5  1  0
  5  6  1  0
  6  7  2  0
  7  8  1  0
  8  9  2  0
  9 10  1  0
 10 11  1  0
 11 12  1  0
 12 13  2  0
 13 14  1  0
 14 15  2  0
 15 16  1  0
 16 17  2  0
 17 18  1  0
 17 19  1  0
 19 20  1  0
 10 21  2  0
 21  6  1  0
 20 11  2  0
 19 14  1  0
  1 22  1  0
  1 23  1  0
  1 24  1  0
  5 25  1  0
  7 26  1  0
  8 27  1  0
 12 28  1  0
 13 29  1  0
 18 30  1  0
 18 31  1  0
 20 32  1  0
 21 33  1  0
M  END
>  <Energy>  (929) 
6.4409272866842482

>  <compound_id>  (929) 
4456

>  <target_id>  (929) 
1

>  <reference_id>  (929) 
189

>  <inspiration_ids>  (929) 
[156, 189]

>  <energy_score>  (929) 
-23.448200950996863

>  <distance_score>  (929) 
1.4606939964429912

>  <path>  (929) 
/opt/xchem-fragalysis-2/maxwin/BulkDock/SCRATCH/505735/C4456-P189/C4456-P189.minimised.mol

>  <scratch_subdir>  (929) 
/opt/xchem-fragalysis-2/maxwin/BulkDock/SCRATCH/505735/C4456-P189

>  <fragmenstein_runtime>  (929) 
2.4487364292144775

>  <fragmenstein_outcome>  (929) 
too moved

>  <fragmenstein_mode>  (929) 
expansion

>  <fragmenstein_error>  (929) 


$$$$
C3764-P156
     RDKit          3D

 49 52  0  0  0  0  0  0  0  0999 V2000
    2.2616    0.2388   30.8766 C   0  0  0  0  0  0  0  0  0  0  0  0
    1.5507   -0.6336   31.8497 N   0  0  0  0  0  0  0  0  0  0  0  0
    0.4040    0.3685   31.5775 C   0  0  0  0  0  0  0  0  0  0  0  0
   -0.2959    0.3769   30.2096 C   0  0  0  0  0  0  0  0  0  0  0  0
   -1.0086   -0.7328   29.7372 C   0  0  0  0  0  0  0  0  0  0  0  0
   -1.4935   -0.7596   28.4320 C   0  0  0  0  0  0  0  0  0  0  0  0
   -1.3461    0.3515   27.6092 C   0  0  0  0  0  0  0  0  0  0  0  0
   -0.6957    1.4857   28.0780 C   0  0  0  0  0  0  0  0  0  0  0  0
   -0.1615    1.4937   29.3647 C   0  0  0  0  0  0  0  0  0  0  0  0
    1.0624   -1.9963   31.7162 C   0  0  0  0  0  0  0  0  0  0  0  0
    1.0335   -2.7033   30.7787 O   0  0  0  0  0  0  0  0  0  0  0  0
    0.7091   -2.2601   33.1184 N   0  0  0  0  0  0  0  0  0  0  0  0
    0.3107   -3.4959   33.7860 C   0  0  0  0  0  0  0  0  0  0  0  0
    0.7447   -4.7410   33.0406 C   0  0  0  0  0  0  0  0  0  0  0  0
    1.8732   -4.8855   32.2857 C   0  0  0  0  0  0  0  0  0  0  0  0
    3.1157   -4.0839   32.4916 C   0  0  0  0  0  0  0  0  0  0  0  0
    3.5224   -3.6271   33.7468 C   0  0  0  0  0  0  0  0  0  0  0  0
    4.6356   -2.8793   33.9538 N   0  0  0  0  0  0  0  0  0  0  0  0
    5.3569   -2.6175   32.8448 C   0  0  0  0  0  0  0  0  0  0  0  0
    5.0006   -3.1063   31.6011 C   0  0  0  0  0  0  0  0  0  0  0  0
    3.8977   -3.8645   31.4039 N   0  0  0  0  0  0  0  0  0  0  0  0
    1.7178   -5.7566   31.1039 C   0  0  0  0  0  0  0  0  0  0  0  0
    0.7036   -6.6273   30.9573 C   0  0  0  0  0  0  0  0  0  0  0  0
   -0.1940   -6.7919   32.0269 C   0  0  0  0  0  0  0  0  0  0  0  0
   -1.0800   -7.7177   32.3119 N   0  0  0  0  0  0  0  0  0  0  0  0
   -1.5623   -7.4424   33.5678 N   0  0  0  0  0  0  0  0  0  0  0  0
   -1.0266   -6.3160   33.9797 C   0  0  0  0  0  0  0  0  0  0  0  0
   -1.1707   -5.7404   35.1996 N   0  0  0  0  0  0  0  0  0  0  0  0
   -0.1637   -5.8232   33.0152 N   0  0  0  0  0  0  0  0  0  0  0  0
    2.3864    1.2998   31.1367 H   0  0  0  0  0  0  0  0  0  0  0  0
    2.0413    0.0186   29.8252 H   0  0  0  0  0  0  0  0  0  0  0  0
    3.2946   -0.1363   30.9517 H   0  0  0  0  0  0  0  0  0  0  0  0
    0.6223    1.3808   31.9594 H   0  0  0  0  0  0  0  0  0  0  0  0
   -0.3914    0.0485   32.2705 H   0  0  0  0  0  0  0  0  0  0  0  0
   -1.1585   -1.6151   30.3517 H   0  0  0  0  0  0  0  0  0  0  0  0
   -1.9929   -1.6483   28.0497 H   0  0  0  0  0  0  0  0  0  0  0  0
   -1.7495    0.3221   26.6004 H   0  0  0  0  0  0  0  0  0  0  0  0
   -0.5969    2.3585   27.4382 H   0  0  0  0  0  0  0  0  0  0  0  0
    0.3723    2.3821   29.6969 H   0  0  0  0  0  0  0  0  0  0  0  0
    0.9336   -1.4465   33.6759 H   0  0  0  0  0  0  0  0  0  0  0  0
    0.6934   -3.4794   34.8103 H   0  0  0  0  0  0  0  0  0  0  0  0
   -0.7812   -3.4287   33.8294 H   0  0  0  0  0  0  0  0  0  0  0  0
    2.9681   -3.8547   34.6491 H   0  0  0  0  0  0  0  0  0  0  0  0
    6.2437   -2.0097   32.9829 H   0  0  0  0  0  0  0  0  0  0  0  0
    5.5967   -2.9003   30.7195 H   0  0  0  0  0  0  0  0  0  0  0  0
    2.4204   -5.6001   30.2878 H   0  0  0  0  0  0  0  0  0  0  0  0
    0.5893   -7.2365   30.0708 H   0  0  0  0  0  0  0  0  0  0  0  0
   -1.5512   -6.4011   35.8768 H   0  0  0  0  0  0  0  0  0  0  0  0
   -1.8729   -4.9897   35.1670 H   0  0  0  0  0  0  0  0  0  0  0  0
  1  2  1  0
  2  3  1  0
  3  4  1  0
  4  5  2  0
  5  6  1  0
  6  7  2  0
  7  8  1  0
  8  9  2  0
  2 10  1  0
 10 11  2  0
 10 12  1  0
 12 13  1  0
 13 14  1  0
 14 15  2  0
 15 16  1  0
 16 17  2  0
 17 18  1  0
 18 19  2  0
 19 20  1  0
 20 21  2  0
 15 22  1  0
 22 23  2  0
 23 24  1  0
 24 25  2  0
 25 26  1  0
 26 27  2  0
 27 28  1  0
 27 29  1  0
  9  4  1  0
 29 14  1  0
 21 16  1  0
 29 24  1  0
  1 30  1  0
  1 31  1  0
  1 32  1  0
  3 33  1  0
  3 34  1  0
  5 35  1  0
  6 36  1  0
  7 37  1  0
  8 38  1  0
  9 39  1  0
 12 40  1  0
 13 41  1  0
 13 42  1  0
 17 43  1  0
 19 44  1  0
 20 45  1  0
 22 46  1  0
 23 47  1  0
 28 48  1  0
 28 49  1  0
M  END
>  <Energy>  (930) 
131.06308539350297

>  <compound_id>  (930) 
3764

>  <target_id>  (930) 
1

>  <reference_id>  (930) 
156

>  <inspiration_ids>  (930) 
[156, 190]

>  <energy_score>  (930) 
52.877832681322786

>  <distance_score>  (930) 
2.340414979336845

>  <path>  (930) 
/opt/xchem-fragalysis-2/maxwin/BulkDock/SCRATCH/505735/C3764-P156/C3764-P156.minimised.mol

>  <scratch_subdir>  (930) 
/opt/xchem-fragalysis-2/maxwin/BulkDock/SCRATCH/505735/C3764-P156

>  <fragmenstein_runtime>  (930) 
21.478805780410767

>  <fragmenstein_outcome>  (930) 
too moved

>  <fragmenstein_mode>  (930) 
expansion

>  <fragmenstein_error>  (930) 


$$$$
C3764-P190
     RDKit          3D

 49 52  0  0  0  0  0  0  0  0999 V2000
   -1.1587   -1.3799   29.3157 C   0  0  0  0  0  0  0  0  0  0  0  0
   -0.7502   -1.9044   30.6480 N   0  0  0  0  0  0  0  0  0  0  0  0
   -1.1737   -0.5056   31.0877 C   0  0  0  0  0  0  0  0  0  0  0  0
   -0.0261    0.4908   31.1562 C   0  0  0  0  0  0  0  0  0  0  0  0
    0.8752    0.4618   32.2321 C   0  0  0  0  0  0  0  0  0  0  0  0
    1.9149    1.3878   32.3118 C   0  0  0  0  0  0  0  0  0  0  0  0
    2.0698    2.3446   31.3125 C   0  0  0  0  0  0  0  0  0  0  0  0
    1.1850    2.3835   30.2380 C   0  0  0  0  0  0  0  0  0  0  0  0
    0.1404    1.4650   30.1614 C   0  0  0  0  0  0  0  0  0  0  0  0
   -1.3726   -2.9074   31.5015 C   0  0  0  0  0  0  0  0  0  0  0  0
   -2.3913   -3.4767   31.3839 O   0  0  0  0  0  0  0  0  0  0  0  0
   -0.3211   -3.0619   32.4755 N   0  0  0  0  0  0  0  0  0  0  0  0
   -0.1516   -4.0275   33.5426 C   0  0  0  0  0  0  0  0  0  0  0  0
    0.5466   -5.1642   32.7942 C   0  0  0  0  0  0  0  0  0  0  0  0
    1.6571   -4.9095   32.0338 C   0  0  0  0  0  0  0  0  0  0  0  0
    2.5797   -3.7869   32.3343 C   0  0  0  0  0  0  0  0  0  0  0  0
    3.1360   -3.5897   33.5958 C   0  0  0  0  0  0  0  0  0  0  0  0
    3.9432   -2.5423   33.8939 N   0  0  0  0  0  0  0  0  0  0  0  0
    4.1975   -1.7016   32.8668 C   0  0  0  0  0  0  0  0  0  0  0  0
    3.6675   -1.8980   31.6046 C   0  0  0  0  0  0  0  0  0  0  0  0
    2.8560   -2.9409   31.3142 N   0  0  0  0  0  0  0  0  0  0  0  0
    1.7522   -5.6153   30.7510 C   0  0  0  0  0  0  0  0  0  0  0  0
    0.8732   -6.5574   30.3729 C   0  0  0  0  0  0  0  0  0  0  0  0
   -0.1103   -6.9956   31.2803 C   0  0  0  0  0  0  0  0  0  0  0  0
   -0.9782   -7.9789   31.2282 N   0  0  0  0  0  0  0  0  0  0  0  0
   -1.5667   -8.0603   32.4620 N   0  0  0  0  0  0  0  0  0  0  0  0
   -1.0742   -7.1101   33.2281 C   0  0  0  0  0  0  0  0  0  0  0  0
   -1.2419   -7.0143   34.5669 N   0  0  0  0  0  0  0  0  0  0  0  0
   -0.2181   -6.3117   32.4823 N   0  0  0  0  0  0  0  0  0  0  0  0
   -1.0612   -2.2715   28.6770 H   0  0  0  0  0  0  0  0  0  0  0  0
   -0.4440   -0.6864   28.8630 H   0  0  0  0  0  0  0  0  0  0  0  0
   -2.2096   -1.1269   29.1665 H   0  0  0  0  0  0  0  0  0  0  0  0
   -2.1117   -0.0631   30.7060 H   0  0  0  0  0  0  0  0  0  0  0  0
   -1.4717   -0.6253   32.1442 H   0  0  0  0  0  0  0  0  0  0  0  0
    0.7641   -0.2739   33.0251 H   0  0  0  0  0  0  0  0  0  0  0  0
    2.5974    1.3689   33.1573 H   0  0  0  0  0  0  0  0  0  0  0  0
    2.8749    3.0727   31.3749 H   0  0  0  0  0  0  0  0  0  0  0  0
    1.2984    3.1418   29.4663 H   0  0  0  0  0  0  0  0  0  0  0  0
   -0.5500    1.5324   29.3223 H   0  0  0  0  0  0  0  0  0  0  0  0
    0.4535   -2.4581   32.2245 H   0  0  0  0  0  0  0  0  0  0  0  0
    0.4476   -3.6019   34.3491 H   0  0  0  0  0  0  0  0  0  0  0  0
   -1.1345   -4.3075   33.9120 H   0  0  0  0  0  0  0  0  0  0  0  0
    2.9462   -4.2703   34.4184 H   0  0  0  0  0  0  0  0  0  0  0  0
    4.8433   -0.8587   33.0857 H   0  0  0  0  0  0  0  0  0  0  0  0
    3.8717   -1.2130   30.7886 H   0  0  0  0  0  0  0  0  0  0  0  0
    2.5287   -5.2964   30.0584 H   0  0  0  0  0  0  0  0  0  0  0  0
    0.9659   -7.0602   29.4211 H   0  0  0  0  0  0  0  0  0  0  0  0
   -1.5318   -7.8974   34.9886 H   0  0  0  0  0  0  0  0  0  0  0  0
   -0.5494   -6.5371   35.1315 H   0  0  0  0  0  0  0  0  0  0  0  0
  1  2  1  0
  2  3  1  0
  3  4  1  0
  4  5  2  0
  5  6  1  0
  6  7  2  0
  7  8  1  0
  8  9  2  0
  2 10  1  0
 10 11  2  0
 10 12  1  0
 12 13  1  0
 13 14  1  0
 14 15  2  0
 15 16  1  0
 16 17  2  0
 17 18  1  0
 18 19  2  0
 19 20  1  0
 20 21  2  0
 15 22  1  0
 22 23  2  0
 23 24  1  0
 24 25  2  0
 25 26  1  0
 26 27  2  0
 27 28  1  0
 27 29  1  0
  9  4  1  0
 29 14  1  0
 21 16  1  0
 29 24  1  0
  1 30  1  0
  1 31  1  0
  1 32  1  0
  3 33  1  0
  3 34  1  0
  5 35  1  0
  6 36  1  0
  7 37  1  0
  8 38  1  0
  9 39  1  0
 12 40  1  0
 13 41  1  0
 13 42  1  0
 17 43  1  0
 19 44  1  0
 20 45  1  0
 22 46  1  0
 23 47  1  0
 28 48  1  0
 28 49  1  0
M  END
>  <Energy>  (931) 
117.2324851327551

>  <compound_id>  (931) 
3764

>  <target_id>  (931) 
1

>  <reference_id>  (931) 
190

>  <inspiration_ids>  (931) 
[156, 190]

>  <energy_score>  (931) 
39.047232420572385

>  <distance_score>  (931) 
1.923819526196691

>  <path>  (931) 
/opt/xchem-fragalysis-2/maxwin/BulkDock/SCRATCH/505735/C3764-P190/C3764-P190.minimised.mol

>  <scratch_subdir>  (931) 
/opt/xchem-fragalysis-2/maxwin/BulkDock/SCRATCH/505735/C3764-P190

>  <fragmenstein_runtime>  (931) 
12.45339298248291

>  <fragmenstein_outcome>  (931) 
too moved

>  <fragmenstein_mode>  (931) 
expansion

>  <fragmenstein_error>  (931) 


$$$$
C3764-P156
     RDKit          3D

 49 52  0  0  0  0  0  0  0  0999 V2000
   -0.2082   -2.2336   29.9495 C   0  0  0  0  0  0  0  0  0  0  0  0
   -0.9618   -1.6593   31.1396 N   0  0  0  0  0  0  0  0  0  0  0  0
   -1.5482   -0.7770   30.0702 C   0  0  0  0  0  0  0  0  0  0  0  0
   -0.7316    0.4276   29.6248 C   0  0  0  0  0  0  0  0  0  0  0  0
   -0.9570    0.9622   28.3468 C   0  0  0  0  0  0  0  0  0  0  0  0
   -0.2457    2.0793   27.9139 C   0  0  0  0  0  0  0  0  0  0  0  0
    0.7037    2.6679   28.7477 C   0  0  0  0  0  0  0  0  0  0  0  0
    0.9418    2.1424   30.0170 C   0  0  0  0  0  0  0  0  0  0  0  0
    0.2217    1.0318   30.4596 C   0  0  0  0  0  0  0  0  0  0  0  0
   -1.5676   -2.7412   31.9181 C   0  0  0  0  0  0  0  0  0  0  0  0
   -2.6296   -3.2362   31.8317 O   0  0  0  0  0  0  0  0  0  0  0  0
   -0.4369   -3.0805   32.7577 N   0  0  0  0  0  0  0  0  0  0  0  0
   -0.2317   -4.1892   33.6750 C   0  0  0  0  0  0  0  0  0  0  0  0
    0.5450   -5.1616   32.8070 C   0  0  0  0  0  0  0  0  0  0  0  0
    1.7162   -4.7843   32.2099 C   0  0  0  0  0  0  0  0  0  0  0  0
    2.5716   -3.7293   32.8000 C   0  0  0  0  0  0  0  0  0  0  0  0
    3.0022   -2.6143   32.0859 C   0  0  0  0  0  0  0  0  0  0  0  0
    3.7641   -1.6365   32.6327 N   0  0  0  0  0  0  0  0  0  0  0  0
    4.1007   -1.8206   33.9267 C   0  0  0  0  0  0  0  0  0  0  0  0
    3.6882   -2.9300   34.6419 C   0  0  0  0  0  0  0  0  0  0  0  0
    2.9155   -3.9018   34.1000 N   0  0  0  0  0  0  0  0  0  0  0  0
    2.0076   -5.3535   30.8954 C   0  0  0  0  0  0  0  0  0  0  0  0
    1.1788   -6.2229   30.2965 C   0  0  0  0  0  0  0  0  0  0  0  0
    0.0918   -6.7733   31.0116 C   0  0  0  0  0  0  0  0  0  0  0  0
   -0.7602   -7.7342   30.7329 N   0  0  0  0  0  0  0  0  0  0  0  0
   -1.4798   -7.9853   31.8747 N   0  0  0  0  0  0  0  0  0  0  0  0
   -1.0649   -7.1647   32.8182 C   0  0  0  0  0  0  0  0  0  0  0  0
   -1.3415   -7.2638   34.1406 N   0  0  0  0  0  0  0  0  0  0  0  0
   -0.1518   -6.2670   32.2779 N   0  0  0  0  0  0  0  0  0  0  0  0
    0.4422   -3.0108   30.3619 H   0  0  0  0  0  0  0  0  0  0  0  0
   -0.8410   -2.8137   29.2586 H   0  0  0  0  0  0  0  0  0  0  0  0
    0.5095   -1.5710   29.4518 H   0  0  0  0  0  0  0  0  0  0  0  0
   -2.3973   -0.3238   30.6049 H   0  0  0  0  0  0  0  0  0  0  0  0
   -2.0586   -1.2990   29.2451 H   0  0  0  0  0  0  0  0  0  0  0  0
   -1.6930    0.5166   27.6788 H   0  0  0  0  0  0  0  0  0  0  0  0
   -0.4435    2.5016   26.9320 H   0  0  0  0  0  0  0  0  0  0  0  0
    1.2464    3.5484   28.4132 H   0  0  0  0  0  0  0  0  0  0  0  0
    1.6763    2.6107   30.6668 H   0  0  0  0  0  0  0  0  0  0  0  0
    0.4061    0.6430   31.4581 H   0  0  0  0  0  0  0  0  0  0  0  0
    0.2881   -2.3889   32.6306 H   0  0  0  0  0  0  0  0  0  0  0  0
    0.3185   -3.8477   34.5537 H   0  0  0  0  0  0  0  0  0  0  0  0
   -1.2031   -4.5711   33.9769 H   0  0  0  0  0  0  0  0  0  0  0  0
    2.7391   -2.4574   31.0458 H   0  0  0  0  0  0  0  0  0  0  0  0
    4.7154   -1.0488   34.3764 H   0  0  0  0  0  0  0  0  0  0  0  0
    3.9666   -3.0674   35.6812 H   0  0  0  0  0  0  0  0  0  0  0  0
    2.8865   -4.9995   30.3622 H   0  0  0  0  0  0  0  0  0  0  0  0
    1.4087   -6.5973   29.3131 H   0  0  0  0  0  0  0  0  0  0  0  0
   -1.6565   -8.1984   34.4169 H   0  0  0  0  0  0  0  0  0  0  0  0
   -0.6779   -6.8920   34.8123 H   0  0  0  0  0  0  0  0  0  0  0  0
  1  2  1  0
  2  3  1  0
  3  4  1  0
  4  5  2  0
  5  6  1  0
  6  7  2  0
  7  8  1  0
  8  9  2  0
  2 10  1  0
 10 11  2  0
 10 12  1  0
 12 13  1  0
 13 14  1  0
 14 15  2  0
 15 16  1  0
 16 17  2  0
 17 18  1  0
 18 19  2  0
 19 20  1  0
 20 21  2  0
 15 22  1  0
 22 23  2  0
 23 24  1  0
 24 25  2  0
 25 26  1  0
 26 27  2  0
 27 28  1  0
 27 29  1  0
  9  4  1  0
 29 14  1  0
 21 16  1  0
 29 24  1  0
  1 30  1  0
  1 31  1  0
  1 32  1  0
  3 33  1  0
  3 34  1  0
  5 35  1  0
  6 36  1  0
  7 37  1  0
  8 38  1  0
  9 39  1  0
 12 40  1  0
 13 41  1  0
 13 42  1  0
 17 43  1  0
 19 44  1  0
 20 45  1  0
 22 46  1  0
 23 47  1  0
 28 48  1  0
 28 49  1  0
M  END
>  <Energy>  (932) 
113.41002516065056

>  <compound_id>  (932) 
3764

>  <target_id>  (932) 
1

>  <reference_id>  (932) 
156

>  <inspiration_ids>  (932) 
[156, 194]

>  <energy_score>  (932) 
17.80872706002168

>  <distance_score>  (932) 
1.5908748394958867

>  <path>  (932) 
/opt/xchem-fragalysis-2/maxwin/BulkDock/SCRATCH/505735/C3764-P156/C3764-P156.minimised.mol

>  <scratch_subdir>  (932) 
/opt/xchem-fragalysis-2/maxwin/BulkDock/SCRATCH/505735/C3764-P156

>  <fragmenstein_runtime>  (932) 
11.781051635742188

>  <fragmenstein_outcome>  (932) 
too moved

>  <fragmenstein_mode>  (932) 
expansion

>  <fragmenstein_error>  (932) 


$$$$
C3764-P194
     RDKit          3D

 49 52  0  0  0  0  0  0  0  0999 V2000
   -2.0255   -1.3431   29.7950 C   0  0  0  0  0  0  0  0  0  0  0  0
   -0.6576   -1.9228   29.9264 N   0  0  0  0  0  0  0  0  0  0  0  0
   -0.3852   -0.9945   28.7523 C   0  0  0  0  0  0  0  0  0  0  0  0
   -0.3659    0.5223   28.8195 C   0  0  0  0  0  0  0  0  0  0  0  0
   -1.2434    1.2528   27.9991 C   0  0  0  0  0  0  0  0  0  0  0  0
   -1.2152    2.6457   27.9945 C   0  0  0  0  0  0  0  0  0  0  0  0
   -0.2980    3.3241   28.7946 C   0  0  0  0  0  0  0  0  0  0  0  0
    0.5842    2.6104   29.6051 C   0  0  0  0  0  0  0  0  0  0  0  0
    0.5513    1.2151   29.6182 C   0  0  0  0  0  0  0  0  0  0  0  0
   -0.2148   -1.8516   31.3145 C   0  0  0  0  0  0  0  0  0  0  0  0
    0.3848   -1.0141   31.8803 O   0  0  0  0  0  0  0  0  0  0  0  0
   -0.6491   -3.1616   31.7572 N   0  0  0  0  0  0  0  0  0  0  0  0
   -0.3950   -3.8785   32.9918 C   0  0  0  0  0  0  0  0  0  0  0  0
    0.5465   -4.9738   32.4981 C   0  0  0  0  0  0  0  0  0  0  0  0
    1.7514   -4.6310   31.9468 C   0  0  0  0  0  0  0  0  0  0  0  0
    2.5595   -3.4711   32.4111 C   0  0  0  0  0  0  0  0  0  0  0  0
    2.7386   -3.1696   33.7616 C   0  0  0  0  0  0  0  0  0  0  0  0
    3.4972   -2.1374   34.2043 N   0  0  0  0  0  0  0  0  0  0  0  0
    4.0699   -1.3968   33.2311 C   0  0  0  0  0  0  0  0  0  0  0  0
    3.9293   -1.7031   31.8886 C   0  0  0  0  0  0  0  0  0  0  0  0
    3.2028   -2.7587   31.4532 N   0  0  0  0  0  0  0  0  0  0  0  0
    2.0777   -5.2849   30.6686 C   0  0  0  0  0  0  0  0  0  0  0  0
    1.2937   -6.2164   30.1017 C   0  0  0  0  0  0  0  0  0  0  0  0
    0.2096   -6.7516   30.8303 C   0  0  0  0  0  0  0  0  0  0  0  0
   -0.6271   -7.7401   30.6016 N   0  0  0  0  0  0  0  0  0  0  0  0
   -1.3749   -7.9165   31.7400 N   0  0  0  0  0  0  0  0  0  0  0  0
   -0.9928   -7.0228   32.6279 C   0  0  0  0  0  0  0  0  0  0  0  0
   -1.3131   -7.0098   33.9418 N   0  0  0  0  0  0  0  0  0  0  0  0
   -0.0802   -6.1555   32.0447 N   0  0  0  0  0  0  0  0  0  0  0  0
   -2.6376   -1.9371   30.4908 H   0  0  0  0  0  0  0  0  0  0  0  0
   -2.5246   -1.5144   28.8309 H   0  0  0  0  0  0  0  0  0  0  0  0
   -2.1374   -0.3330   30.2127 H   0  0  0  0  0  0  0  0  0  0  0  0
   -0.8563   -1.3688   27.8279 H   0  0  0  0  0  0  0  0  0  0  0  0
    0.6716   -1.2366   28.5490 H   0  0  0  0  0  0  0  0  0  0  0  0
   -1.9545    0.7390   27.3543 H   0  0  0  0  0  0  0  0  0  0  0  0
   -1.9160    3.2060   27.3790 H   0  0  0  0  0  0  0  0  0  0  0  0
   -0.2870    4.4118   28.8032 H   0  0  0  0  0  0  0  0  0  0  0  0
    1.2932    3.1436   30.2328 H   0  0  0  0  0  0  0  0  0  0  0  0
    1.2525    0.6717   30.2476 H   0  0  0  0  0  0  0  0  0  0  0  0
   -1.0710   -3.6505   30.9788 H   0  0  0  0  0  0  0  0  0  0  0  0
    0.0372   -3.2139   33.7406 H   0  0  0  0  0  0  0  0  0  0  0  0
   -1.3426   -4.2693   33.3516 H   0  0  0  0  0  0  0  0  0  0  0  0
    2.2821   -3.7612   34.5466 H   0  0  0  0  0  0  0  0  0  0  0  0
    4.6541   -0.5449   33.5595 H   0  0  0  0  0  0  0  0  0  0  0  0
    4.3994   -1.1010   31.1194 H   0  0  0  0  0  0  0  0  0  0  0  0
    2.9371   -4.9032   30.1197 H   0  0  0  0  0  0  0  0  0  0  0  0
    1.5448   -6.6269   29.1332 H   0  0  0  0  0  0  0  0  0  0  0  0
   -1.6108   -7.9230   34.2925 H   0  0  0  0  0  0  0  0  0  0  0  0
   -0.7012   -6.5421   34.6033 H   0  0  0  0  0  0  0  0  0  0  0  0
  1  2  1  0
  2  3  1  0
  3  4  1  0
  4  5  2  0
  5  6  1  0
  6  7  2  0
  7  8  1  0
  8  9  2  0
  2 10  1  0
 10 11  2  0
 10 12  1  0
 12 13  1  0
 13 14  1  0
 14 15  2  0
 15 16  1  0
 16 17  2  0
 17 18  1  0
 18 19  2  0
 19 20  1  0
 20 21  2  0
 15 22  1  0
 22 23  2  0
 23 24  1  0
 24 25  2  0
 25 26  1  0
 26 27  2  0
 27 28  1  0
 27 29  1  0
  9  4  1  0
 29 14  1  0
 21 16  1  0
 29 24  1  0
  1 30  1  0
  1 31  1  0
  1 32  1  0
  3 33  1  0
  3 34  1  0
  5 35  1  0
  6 36  1  0
  7 37  1  0
  8 38  1  0
  9 39  1  0
 12 40  1  0
 13 41  1  0
 13 42  1  0
 17 43  1  0
 19 44  1  0
 20 45  1  0
 22 46  1  0
 23 47  1  0
 28 48  1  0
 28 49  1  0
M  END
>  <Energy>  (933) 
126.25317708390052

>  <compound_id>  (933) 
3764

>  <target_id>  (933) 
1

>  <reference_id>  (933) 
194

>  <inspiration_ids>  (933) 
[156, 194]

>  <energy_score>  (933) 
30.651878983267324

>  <distance_score>  (933) 
1.4229082946830742

>  <path>  (933) 
/opt/xchem-fragalysis-2/maxwin/BulkDock/SCRATCH/505735/C3764-P194/C3764-P194.minimised.mol

>  <scratch_subdir>  (933) 
/opt/xchem-fragalysis-2/maxwin/BulkDock/SCRATCH/505735/C3764-P194

>  <fragmenstein_runtime>  (933) 
12.184882879257202

>  <fragmenstein_outcome>  (933) 
too moved

>  <fragmenstein_mode>  (933) 
expansion

>  <fragmenstein_error>  (933) 


$$$$
C4424-P156
     RDKit          3D

 33 35  0  0  0  0  0  0  0  0999 V2000
    2.3790   -3.6409   33.7391 C   0  0  0  0  0  0  0  0  0  0  0  0
    2.5095   -5.0142   33.3278 O   0  0  0  0  0  0  0  0  0  0  0  0
    1.6292   -5.2412   32.3083 C   0  0  0  0  0  0  0  0  0  0  0  0
    0.3365   -5.6337   32.5987 C   0  0  0  0  0  0  0  0  0  0  0  0
   -0.6700   -5.4557   31.7230 N   0  0  0  0  0  0  0  0  0  0  0  0
   -0.3457   -4.7761   30.5890 C   0  0  0  0  0  0  0  0  0  0  0  0
   -0.9957   -3.4100   30.5168 C   0  0  0  0  0  0  0  0  0  0  0  0
   -1.3628   -2.7468   31.7832 C   0  0  0  0  0  0  0  0  0  0  0  0
   -1.5301   -1.4232   31.8827 C   0  0  0  0  0  0  0  0  0  0  0  0
   -1.4015   -0.6354   30.7238 C   0  0  0  0  0  0  0  0  0  0  0  0
   -1.3403    0.6587   30.5695 N   0  0  0  0  0  0  0  0  0  0  0  0
   -1.3027    0.9149   29.2278 N   0  0  0  0  0  0  0  0  0  0  0  0
   -1.3247   -0.2298   28.5837 C   0  0  0  0  0  0  0  0  0  0  0  0
   -1.4100   -0.3623   27.2558 N   0  0  0  0  0  0  0  0  0  0  0  0
   -1.2742   -1.2726   29.4983 N   0  0  0  0  0  0  0  0  0  0  0  0
   -1.0485   -2.6535   29.3899 C   0  0  0  0  0  0  0  0  0  0  0  0
    0.9432   -4.7804   30.0712 C   0  0  0  0  0  0  0  0  0  0  0  0
    1.9679   -4.9505   30.9865 C   0  0  0  0  0  0  0  0  0  0  0  0
    3.2845   -4.6799   30.7241 O   0  0  0  0  0  0  0  0  0  0  0  0
    3.6893   -4.7724   29.3613 C   0  0  0  0  0  0  0  0  0  0  0  0
    1.3723   -3.4344   34.1193 H   0  0  0  0  0  0  0  0  0  0  0  0
    2.6334   -2.9528   32.9253 H   0  0  0  0  0  0  0  0  0  0  0  0
    3.0886   -3.4746   34.5552 H   0  0  0  0  0  0  0  0  0  0  0  0
    0.0500   -5.9786   33.5868 H   0  0  0  0  0  0  0  0  0  0  0  0
   -1.4724   -3.3531   32.6795 H   0  0  0  0  0  0  0  0  0  0  0  0
   -1.7612   -0.9460   32.8276 H   0  0  0  0  0  0  0  0  0  0  0  0
   -1.7032    0.4517   26.7271 H   0  0  0  0  0  0  0  0  0  0  0  0
   -1.6089   -1.2339   26.7679 H   0  0  0  0  0  0  0  0  0  0  0  0
   -0.8064   -3.0146   28.3999 H   0  0  0  0  0  0  0  0  0  0  0  0
    1.1451   -4.3262   29.1086 H   0  0  0  0  0  0  0  0  0  0  0  0
    3.3565   -3.8943   28.7990 H   0  0  0  0  0  0  0  0  0  0  0  0
    4.7831   -4.7879   29.3388 H   0  0  0  0  0  0  0  0  0  0  0  0
    3.3318   -5.6970   28.8949 H   0  0  0  0  0  0  0  0  0  0  0  0
  1  2  1  0
  2  3  1  0
  3  4  2  0
  4  5  1  0
  5  6  2  0
  6  7  1  0
  7  8  1  0
  8  9  2  0
  9 10  1  0
 10 11  2  0
 11 12  1  0
 12 13  2  0
 13 14  1  0
 13 15  1  0
 15 16  1  0
  6 17  1  0
 17 18  2  0
 18 19  1  0
 19 20  1  0
 18  3  1  0
 16  7  2  0
 15 10  1  0
  1 21  1  0
  1 22  1  0
  1 23  1  0
  4 24  1  0
  8 25  1  0
  9 26  1  0
 14 27  1  0
 14 28  1  0
 16 29  1  0
 17 30  1  0
 20 31  1  0
 20 32  1  0
 20 33  1  0
M  END
>  <Energy>  (934) 
113.2432736265154

>  <compound_id>  (934) 
4424

>  <target_id>  (934) 
1

>  <reference_id>  (934) 
156

>  <inspiration_ids>  (934) 
[156, 195]

>  <energy_score>  (934) 
-0.3958219205644582

>  <distance_score>  (934) 
1.3521309589106962

>  <path>  (934) 
/opt/xchem-fragalysis-2/maxwin/BulkDock/SCRATCH/505735/C4424-P156/C4424-P156.minimised.mol

>  <scratch_subdir>  (934) 
/opt/xchem-fragalysis-2/maxwin/BulkDock/SCRATCH/505735/C4424-P156

>  <fragmenstein_runtime>  (934) 
1.6423954963684082

>  <fragmenstein_outcome>  (934) 
too moved

>  <fragmenstein_mode>  (934) 
expansion

>  <fragmenstein_error>  (934) 


$$$$
C4424-P195
     RDKit          3D

 33 35  0  0  0  0  0  0  0  0999 V2000
    2.3917   -3.7131   33.6977 C   0  0  0  0  0  0  0  0  0  0  0  0
    2.4515   -5.0845   33.2633 O   0  0  0  0  0  0  0  0  0  0  0  0
    1.5194   -5.2620   32.2794 C   0  0  0  0  0  0  0  0  0  0  0  0
    0.2139   -5.5623   32.6220 C   0  0  0  0  0  0  0  0  0  0  0  0
   -0.8134   -5.3063   31.7902 N   0  0  0  0  0  0  0  0  0  0  0  0
   -0.4886   -4.6648   30.6359 C   0  0  0  0  0  0  0  0  0  0  0  0
   -1.0496   -3.2640   30.5586 C   0  0  0  0  0  0  0  0  0  0  0  0
   -1.1601   -2.4972   31.8147 C   0  0  0  0  0  0  0  0  0  0  0  0
   -1.1450   -1.1591   31.8422 C   0  0  0  0  0  0  0  0  0  0  0  0
   -1.0948   -0.4580   30.6216 C   0  0  0  0  0  0  0  0  0  0  0  0
   -0.8513    0.7980   30.3530 N   0  0  0  0  0  0  0  0  0  0  0  0
   -1.0770    0.9805   29.0153 N   0  0  0  0  0  0  0  0  0  0  0  0
   -1.4018   -0.1781   28.4850 C   0  0  0  0  0  0  0  0  0  0  0  0
   -1.8458   -0.3656   27.2347 N   0  0  0  0  0  0  0  0  0  0  0  0
   -1.2764   -1.1711   29.4450 N   0  0  0  0  0  0  0  0  0  0  0  0
   -1.2110   -2.5731   29.4012 C   0  0  0  0  0  0  0  0  0  0  0  0
    0.7792   -4.7516   30.0713 C   0  0  0  0  0  0  0  0  0  0  0  0
    1.8259   -4.9926   30.9452 C   0  0  0  0  0  0  0  0  0  0  0  0
    3.1454   -4.8044   30.6322 O   0  0  0  0  0  0  0  0  0  0  0  0
    3.4889   -4.8959   29.2528 C   0  0  0  0  0  0  0  0  0  0  0  0
    1.4204   -3.4829   34.1494 H   0  0  0  0  0  0  0  0  0  0  0  0
    2.6101   -3.0215   32.8763 H   0  0  0  0  0  0  0  0  0  0  0  0
    3.1605   -3.5790   34.4646 H   0  0  0  0  0  0  0  0  0  0  0  0
   -0.0563   -5.8875   33.6215 H   0  0  0  0  0  0  0  0  0  0  0  0
   -1.2234   -3.0436   32.7528 H   0  0  0  0  0  0  0  0  0  0  0  0
   -1.1791   -0.6039   32.7718 H   0  0  0  0  0  0  0  0  0  0  0  0
   -1.8076    0.4394   26.6203 H   0  0  0  0  0  0  0  0  0  0  0  0
   -1.7028   -1.2310   26.7129 H   0  0  0  0  0  0  0  0  0  0  0  0
   -1.1548   -3.0121   28.4148 H   0  0  0  0  0  0  0  0  0  0  0  0
    0.9707   -4.3043   29.1028 H   0  0  0  0  0  0  0  0  0  0  0  0
    3.1869   -3.9898   28.7182 H   0  0  0  0  0  0  0  0  0  0  0  0
    4.5781   -4.9753   29.1845 H   0  0  0  0  0  0  0  0  0  0  0  0
    3.0586   -5.7895   28.7874 H   0  0  0  0  0  0  0  0  0  0  0  0
  1  2  1  0
  2  3  1  0
  3  4  2  0
  4  5  1  0
  5  6  2  0
  6  7  1  0
  7  8  1  0
  8  9  2  0
  9 10  1  0
 10 11  2  0
 11 12  1  0
 12 13  2  0
 13 14  1  0
 13 15  1  0
 15 16  1  0
  6 17  1  0
 17 18  2  0
 18 19  1  0
 19 20  1  0
 18  3  1  0
 16  7  2  0
 15 10  1  0
  1 21  1  0
  1 22  1  0
  1 23  1  0
  4 24  1  0
  8 25  1  0
  9 26  1  0
 14 27  1  0
 14 28  1  0
 16 29  1  0
 17 30  1  0
 20 31  1  0
 20 32  1  0
 20 33  1  0
M  END
>  <Energy>  (935) 
115.30637502666802

>  <compound_id>  (935) 
4424

>  <target_id>  (935) 
1

>  <reference_id>  (935) 
195

>  <inspiration_ids>  (935) 
[156, 195]

>  <energy_score>  (935) 
1.6672794795902632

>  <distance_score>  (935) 
1.3921429300864574

>  <path>  (935) 
/opt/xchem-fragalysis-2/maxwin/BulkDock/SCRATCH/505735/C4424-P195/C4424-P195.minimised.mol

>  <scratch_subdir>  (935) 
/opt/xchem-fragalysis-2/maxwin/BulkDock/SCRATCH/505735/C4424-P195

>  <fragmenstein_runtime>  (935) 
1.532435655593872

>  <fragmenstein_outcome>  (935) 
too moved

>  <fragmenstein_mode>  (935) 
expansion

>  <fragmenstein_error>  (935) 


$$$$
C4424-P156
     RDKit          2D

  0  0  0  0  0  0  0  0  0  0999 V2000
M  END
>  <compound_id>  (936) 
4424

>  <target_id>  (936) 
1

>  <reference_id>  (936) 
156

>  <inspiration_ids>  (936) 
[156, 196]

>  <energy_score>  (936) 
nan

>  <distance_score>  (936) 
nan

>  <path>  (936) 
/opt/xchem-fragalysis-2/maxwin/BulkDock/SCRATCH/505735/C4424-P156/C4424-P156.minimised.mol

>  <scratch_subdir>  (936) 
/opt/xchem-fragalysis-2/maxwin/BulkDock/SCRATCH/505735/C4424-P156

>  <fragmenstein_runtime>  (936) 
0.41412782669067383

>  <fragmenstein_outcome>  (936) 
crashed

>  <fragmenstein_mode>  (936) 
expansion

>  <fragmenstein_error>  (936) 
PoisonError: None has poison atoms [12, 13, 11, 10, 14, 15, 8, 7, 6, 5, 16, 17, 18, 4, 3, 2]

$$$$
C3878-P156
     RDKit          3D

 39 43  0  0  0  0  0  0  0  0999 V2000
   -1.5298   -7.3695   34.5149 N   0  0  0  0  0  0  0  0  0  0  0  0
   -1.2449   -7.4067   33.2006 C   0  0  0  0  0  0  0  0  0  0  0  0
   -1.6796   -8.3165   32.3541 N   0  0  0  0  0  0  0  0  0  0  0  0
   -1.0786   -8.1224   31.1460 N   0  0  0  0  0  0  0  0  0  0  0  0
   -0.2406   -7.1258   31.2926 C   0  0  0  0  0  0  0  0  0  0  0  0
    0.7376   -6.6016   30.4276 C   0  0  0  0  0  0  0  0  0  0  0  0
    1.5325   -5.5985   30.8201 C   0  0  0  0  0  0  0  0  0  0  0  0
    1.3517   -4.9541   32.1078 C   0  0  0  0  0  0  0  0  0  0  0  0
    2.1539   -3.7942   32.5190 C   0  0  0  0  0  0  0  0  0  0  0  0
    3.3920   -3.6232   32.0137 N   0  0  0  0  0  0  0  0  0  0  0  0
    3.9971   -2.4593   32.3555 C   0  0  0  0  0  0  0  0  0  0  0  0
    3.3876   -1.4994   33.1386 C   0  0  0  0  0  0  0  0  0  0  0  0
    2.1475   -1.6730   33.6362 N   0  0  0  0  0  0  0  0  0  0  0  0
    1.5563   -2.8520   33.3359 C   0  0  0  0  0  0  0  0  0  0  0  0
    0.2959   -3.1704   33.8733 N   0  0  0  0  0  0  0  0  0  0  0  0
   -0.7672   -2.2087   33.6169 C   0  0  0  0  0  0  0  0  0  0  0  0
   -0.8805   -1.7546   32.1635 C   0  0  0  0  0  0  0  0  0  0  0  0
   -1.2909   -2.6139   31.1361 C   0  0  0  0  0  0  0  0  0  0  0  0
   -1.3151   -2.1867   29.8015 C   0  0  0  0  0  0  0  0  0  0  0  0
   -0.9532   -0.8850   29.4692 C   0  0  0  0  0  0  0  0  0  0  0  0
   -0.5556   -0.0135   30.4784 C   0  0  0  0  0  0  0  0  0  0  0  0
   -0.5205   -0.4450   31.8139 C   0  0  0  0  0  0  0  0  0  0  0  0
   -0.0444   -4.5050   34.0413 C   0  0  0  0  0  0  0  0  0  0  0  0
   -0.6859   -4.9216   34.9978 O   0  0  0  0  0  0  0  0  0  0  0  0
    0.3457   -5.3908   32.9092 C   0  0  0  0  0  0  0  0  0  0  0  0
   -0.3706   -6.5459   32.5475 N   0  0  0  0  0  0  0  0  0  0  0  0
   -1.7049   -8.2734   34.9581 H   0  0  0  0  0  0  0  0  0  0  0  0
   -1.1195   -6.6582   35.1274 H   0  0  0  0  0  0  0  0  0  0  0  0
    0.9108   -7.1009   29.4963 H   0  0  0  0  0  0  0  0  0  0  0  0
    2.3189   -5.2292   30.1651 H   0  0  0  0  0  0  0  0  0  0  0  0
    4.9967   -2.3114   31.9600 H   0  0  0  0  0  0  0  0  0  0  0  0
    3.8796   -0.5657   33.3862 H   0  0  0  0  0  0  0  0  0  0  0  0
   -0.5994   -1.3466   34.2746 H   0  0  0  0  0  0  0  0  0  0  0  0
   -1.7309   -2.6399   33.9137 H   0  0  0  0  0  0  0  0  0  0  0  0
   -1.5862   -3.6330   31.3600 H   0  0  0  0  0  0  0  0  0  0  0  0
   -1.6243   -2.8677   29.0115 H   0  0  0  0  0  0  0  0  0  0  0  0
   -0.9820   -0.5592   28.4315 H   0  0  0  0  0  0  0  0  0  0  0  0
   -0.2598    1.0018   30.2257 H   0  0  0  0  0  0  0  0  0  0  0  0
   -0.1762    0.2513   32.5770 H   0  0  0  0  0  0  0  0  0  0  0  0
  1  2  1  0
  2  3  2  0
  3  4  1  0
  4  5  2  0
  5  6  1  0
  6  7  2  0
  7  8  1  0
  8  9  1  0
  9 10  2  0
 10 11  1  0
 11 12  2  0
 12 13  1  0
 13 14  2  0
 14 15  1  0
 15 16  1  0
 16 17  1  0
 17 18  2  0
 18 19  1  0
 19 20  2  0
 20 21  1  0
 21 22  2  0
 15 23  1  0
 23 24  2  0
 23 25  1  0
 25 26  1  0
 26  2  1  0
 26  5  1  0
 25  8  2  0
 14  9  1  0
 22 17  1  0
  1 27  1  0
  1 28  1  0
  6 29  1  0
  7 30  1  0
 11 31  1  0
 12 32  1  0
 16 33  1  0
 16 34  1  0
 18 35  1  0
 19 36  1  0
 20 37  1  0
 21 38  1  0
 22 39  1  0
M  END
>  <Energy>  (937) 
95.773001074881137

>  <compound_id>  (937) 
3878

>  <target_id>  (937) 
1

>  <reference_id>  (937) 
156

>  <inspiration_ids>  (937) 
[156, 197]

>  <energy_score>  (937) 
-42.00228884929993

>  <distance_score>  (937) 
1.7576509890661425

>  <path>  (937) 
/opt/xchem-fragalysis-2/maxwin/BulkDock/SCRATCH/505735/C3878-P156/C3878-P156.minimised.mol

>  <scratch_subdir>  (937) 
/opt/xchem-fragalysis-2/maxwin/BulkDock/SCRATCH/505735/C3878-P156

>  <fragmenstein_runtime>  (937) 
4.091912269592285

>  <fragmenstein_outcome>  (937) 
too moved

>  <fragmenstein_mode>  (937) 
expansion

>  <fragmenstein_error>  (937) 


$$$$
C3878-P197
     RDKit          3D

 39 43  0  0  0  0  0  0  0  0999 V2000
   -1.4773   -7.4393   34.3847 N   0  0  0  0  0  0  0  0  0  0  0  0
   -1.1943   -7.4380   33.0679 C   0  0  0  0  0  0  0  0  0  0  0  0
   -1.6308   -8.3221   32.1963 N   0  0  0  0  0  0  0  0  0  0  0  0
   -1.0210   -8.1010   30.9961 N   0  0  0  0  0  0  0  0  0  0  0  0
   -0.1785   -7.1122   31.1696 C   0  0  0  0  0  0  0  0  0  0  0  0
    0.8071   -6.5663   30.3228 C   0  0  0  0  0  0  0  0  0  0  0  0
    1.5856   -5.5610   30.7432 C   0  0  0  0  0  0  0  0  0  0  0  0
    1.3855   -4.9414   32.0403 C   0  0  0  0  0  0  0  0  0  0  0  0
    2.1685   -3.7788   32.4793 C   0  0  0  0  0  0  0  0  0  0  0  0
    3.4105   -3.5840   31.9930 N   0  0  0  0  0  0  0  0  0  0  0  0
    3.9963   -2.4179   32.3578 C   0  0  0  0  0  0  0  0  0  0  0  0
    3.3646   -1.4779   33.1472 C   0  0  0  0  0  0  0  0  0  0  0  0
    2.1211   -1.6747   33.6281 N   0  0  0  0  0  0  0  0  0  0  0  0
    1.5494   -2.8575   33.3038 C   0  0  0  0  0  0  0  0  0  0  0  0
    0.2927   -3.2057   33.8300 N   0  0  0  0  0  0  0  0  0  0  0  0
   -0.7838   -2.2532   33.6057 C   0  0  0  0  0  0  0  0  0  0  0  0
   -0.9169   -1.7681   32.1641 C   0  0  0  0  0  0  0  0  0  0  0  0
   -1.3335   -2.6080   31.1227 C   0  0  0  0  0  0  0  0  0  0  0  0
   -1.3874   -2.1490   29.7992 C   0  0  0  0  0  0  0  0  0  0  0  0
   -1.0447   -0.8349   29.4932 C   0  0  0  0  0  0  0  0  0  0  0  0
   -0.6358    0.0156   30.5160 C   0  0  0  0  0  0  0  0  0  0  0  0
   -0.5740   -0.4473   31.8399 C   0  0  0  0  0  0  0  0  0  0  0  0
   -0.0268   -4.5481   33.9738 C   0  0  0  0  0  0  0  0  0  0  0  0
   -0.6605   -4.9908   34.9238 O   0  0  0  0  0  0  0  0  0  0  0  0
    0.3807   -5.4061   32.8267 C   0  0  0  0  0  0  0  0  0  0  0  0
   -0.3211   -6.5599   32.4368 N   0  0  0  0  0  0  0  0  0  0  0  0
   -1.6346   -8.3644   34.7936 H   0  0  0  0  0  0  0  0  0  0  0  0
   -1.0522   -6.7545   35.0153 H   0  0  0  0  0  0  0  0  0  0  0  0
    1.0126   -7.0494   29.3844 H   0  0  0  0  0  0  0  0  0  0  0  0
    2.3778   -5.1763   30.1038 H   0  0  0  0  0  0  0  0  0  0  0  0
    4.9981   -2.2518   31.9755 H   0  0  0  0  0  0  0  0  0  0  0  0
    3.8416   -0.5417   33.4136 H   0  0  0  0  0  0  0  0  0  0  0  0
   -0.6215   -1.4038   34.2811 H   0  0  0  0  0  0  0  0  0  0  0  0
   -1.7391   -2.7031   33.9015 H   0  0  0  0  0  0  0  0  0  0  0  0
   -1.6125   -3.6365   31.3260 H   0  0  0  0  0  0  0  0  0  0  0  0
   -1.7039   -2.8178   29.0002 H   0  0  0  0  0  0  0  0  0  0  0  0
   -1.0965   -0.4817   28.4657 H   0  0  0  0  0  0  0  0  0  0  0  0
   -0.3519    1.0386   30.2832 H   0  0  0  0  0  0  0  0  0  0  0  0
   -0.2231    0.2325   32.6146 H   0  0  0  0  0  0  0  0  0  0  0  0
  1  2  1  0
  2  3  2  0
  3  4  1  0
  4  5  2  0
  5  6  1  0
  6  7  2  0
  7  8  1  0
  8  9  1  0
  9 10  2  0
 10 11  1  0
 11 12  2  0
 12 13  1  0
 13 14  2  0
 14 15  1  0
 15 16  1  0
 16 17  1  0
 17 18  2  0
 18 19  1  0
 19 20  2  0
 20 21  1  0
 21 22  2  0
 15 23  1  0
 23 24  2  0
 23 25  1  0
 25 26  1  0
 26  2  1  0
 26  5  1  0
 25  8  2  0
 14  9  1  0
 22 17  1  0
  1 27  1  0
  1 28  1  0
  6 29  1  0
  7 30  1  0
 11 31  1  0
 12 32  1  0
 16 33  1  0
 16 34  1  0
 18 35  1  0
 19 36  1  0
 20 37  1  0
 21 38  1  0
 22 39  1  0
M  END
>  <Energy>  (938) 
95.521602692464825

>  <compound_id>  (938) 
3878

>  <target_id>  (938) 
1

>  <reference_id>  (938) 
197

>  <inspiration_ids>  (938) 
[156, 197]

>  <energy_score>  (938) 
-42.25368723171562

>  <distance_score>  (938) 
1.756742598705859

>  <path>  (938) 
/opt/xchem-fragalysis-2/maxwin/BulkDock/SCRATCH/505735/C3878-P197/C3878-P197.minimised.mol

>  <scratch_subdir>  (938) 
/opt/xchem-fragalysis-2/maxwin/BulkDock/SCRATCH/505735/C3878-P197

>  <fragmenstein_runtime>  (938) 
4.035184144973755

>  <fragmenstein_outcome>  (938) 
too moved

>  <fragmenstein_mode>  (938) 
expansion

>  <fragmenstein_error>  (938) 


$$$$
C3878-P156
     RDKit          2D

  0  0  0  0  0  0  0  0  0  0999 V2000
M  END
>  <compound_id>  (939) 
3878

>  <target_id>  (939) 
1

>  <reference_id>  (939) 
156

>  <inspiration_ids>  (939) 
[156, 198]

>  <energy_score>  (939) 
nan

>  <distance_score>  (939) 
nan

>  <path>  (939) 
/opt/xchem-fragalysis-2/maxwin/BulkDock/SCRATCH/505735/C3878-P156/C3878-P156.minimised.mol

>  <scratch_subdir>  (939) 
/opt/xchem-fragalysis-2/maxwin/BulkDock/SCRATCH/505735/C3878-P156

>  <fragmenstein_runtime>  (939) 
2.8448774814605713

>  <fragmenstein_outcome>  (939) 
crashed

>  <fragmenstein_mode>  (939) 
expansion

>  <fragmenstein_error>  (939) 
PoisonError: None has poison atoms [1, 2, 3, 4, 25, 24, 6, 5, 13, 14, 22, 23, 15, 16, 17, 21]

$$$$
C4426-P156
     RDKit          3D

 46 49  0  0  0  0  0  0  0  0999 V2000
    1.8329   -7.0254   33.7877 N   0  0  0  0  0  0  0  0  0  0  0  0
    0.6413   -6.5617   33.3277 C   0  0  0  0  0  0  0  0  0  0  0  0
   -0.5454   -7.0513   33.5960 N   0  0  0  0  0  0  0  0  0  0  0  0
   -1.4497   -6.0388   33.4011 N   0  0  0  0  0  0  0  0  0  0  0  0
   -0.7879   -4.9680   33.0167 C   0  0  0  0  0  0  0  0  0  0  0  0
   -1.1134   -3.5978   32.8798 C   0  0  0  0  0  0  0  0  0  0  0  0
   -0.1925   -2.7446   32.4012 C   0  0  0  0  0  0  0  0  0  0  0  0
    1.1097   -3.1947   31.8906 C   0  0  0  0  0  0  0  0  0  0  0  0
    2.1301   -2.2327   31.4056 C   0  0  0  0  0  0  0  0  0  0  0  0
    1.7882   -1.1069   30.6659 C   0  0  0  0  0  0  0  0  0  0  0  0
    2.6828   -0.1451   30.3313 N   0  0  0  0  0  0  0  0  0  0  0  0
    3.9453   -0.3448   30.7640 C   0  0  0  0  0  0  0  0  0  0  0  0
    4.3050   -1.4650   31.4857 C   0  0  0  0  0  0  0  0  0  0  0  0
    3.4173   -2.4328   31.8098 N   0  0  0  0  0  0  0  0  0  0  0  0
    1.3880   -4.5252   31.9618 C   0  0  0  0  0  0  0  0  0  0  0  0
    2.4155   -5.1569   31.2513 N   0  0  0  0  0  0  0  0  0  0  0  0
    2.2182   -5.2999   29.7848 C   0  0  0  0  0  0  0  0  0  0  0  0
    3.5483   -5.5662   29.0690 C   0  0  0  0  0  0  0  0  0  0  0  0
    3.6245   -6.4284   28.2398 O   0  0  0  0  0  0  0  0  0  0  0  0
    4.5129   -4.6079   29.5134 N   0  0  0  0  0  0  0  0  0  0  0  0
    5.8980   -4.4391   29.1751 C   0  0  0  0  0  0  0  0  0  0  0  0
    6.7907   -5.2117   30.1070 C   0  0  0  0  0  0  0  0  0  0  0  0
    6.8476   -4.8998   31.4742 C   0  0  0  0  0  0  0  0  0  0  0  0
    7.6827   -5.6179   32.3321 C   0  0  0  0  0  0  0  0  0  0  0  0
    8.4713   -6.6531   31.8337 C   0  0  0  0  0  0  0  0  0  0  0  0
    8.4243   -6.9726   30.4783 C   0  0  0  0  0  0  0  0  0  0  0  0
    7.5871   -6.2580   29.6197 C   0  0  0  0  0  0  0  0  0  0  0  0
    0.4958   -5.3396   32.6901 N   0  0  0  0  0  0  0  0  0  0  0  0
    1.6978   -7.5407   34.6606 H   0  0  0  0  0  0  0  0  0  0  0  0
    2.5387   -6.3037   33.9510 H   0  0  0  0  0  0  0  0  0  0  0  0
   -2.0673   -3.2313   33.2405 H   0  0  0  0  0  0  0  0  0  0  0  0
   -0.4241   -1.6826   32.3712 H   0  0  0  0  0  0  0  0  0  0  0  0
    0.7754   -0.9259   30.3214 H   0  0  0  0  0  0  0  0  0  0  0  0
    4.6643    0.4257   30.5093 H   0  0  0  0  0  0  0  0  0  0  0  0
    5.3226   -1.6123   31.8287 H   0  0  0  0  0  0  0  0  0  0  0  0
    2.5777   -6.0852   31.6434 H   0  0  0  0  0  0  0  0  0  0  0  0
    1.7815   -4.3964   29.3434 H   0  0  0  0  0  0  0  0  0  0  0  0
    1.5379   -6.1375   29.6018 H   0  0  0  0  0  0  0  0  0  0  0  0
    4.1216   -4.0814   30.2995 H   0  0  0  0  0  0  0  0  0  0  0  0
    6.0346   -4.7697   28.1398 H   0  0  0  0  0  0  0  0  0  0  0  0
    6.1359   -3.3716   29.2270 H   0  0  0  0  0  0  0  0  0  0  0  0
    6.2334   -4.1000   31.8802 H   0  0  0  0  0  0  0  0  0  0  0  0
    7.7202   -5.3687   33.3894 H   0  0  0  0  0  0  0  0  0  0  0  0
    9.1255   -7.2087   32.5006 H   0  0  0  0  0  0  0  0  0  0  0  0
    9.0432   -7.7754   30.0857 H   0  0  0  0  0  0  0  0  0  0  0  0
    7.5628   -6.5220   28.5636 H   0  0  0  0  0  0  0  0  0  0  0  0
  1  2  1  0
  2  3  2  0
  3  4  1  0
  4  5  2  0
  5  6  1  0
  6  7  2  0
  7  8  1  0
  8  9  1  0
  9 10  2  0
 10 11  1  0
 11 12  2  0
 12 13  1  0
 13 14  2  0
  8 15  2  0
 15 16  1  0
 16 17  1  0
 17 18  1  0
 18 19  2  0
 18 20  1  0
 20 21  1  0
 21 22  1  0
 22 23  2  0
 23 24  1  0
 24 25  2  0
 25 26  1  0
 26 27  2  0
 15 28  1  0
 28  2  1  0
 28  5  1  0
 14  9  1  0
 27 22  1  0
  1 29  1  0
  1 30  1  0
  6 31  1  0
  7 32  1  0
 10 33  1  0
 12 34  1  0
 13 35  1  0
 16 36  1  0
 17 37  1  0
 17 38  1  0
 20 39  1  0
 21 40  1  0
 21 41  1  0
 23 42  1  0
 24 43  1  0
 25 44  1  0
 26 45  1  0
 27 46  1  0
M  END
>  <Energy>  (940) 
186.2201140055484

>  <compound_id>  (940) 
4426

>  <target_id>  (940) 
1

>  <reference_id>  (940) 
156

>  <inspiration_ids>  (940) 
[156, 200]

>  <energy_score>  (940) 
-43.097679956548916

>  <distance_score>  (940) 
2.8296688314928073

>  <path>  (940) 
/opt/xchem-fragalysis-2/maxwin/BulkDock/SCRATCH/505735/C4426-P156/C4426-P156.minimised.mol

>  <scratch_subdir>  (940) 
/opt/xchem-fragalysis-2/maxwin/BulkDock/SCRATCH/505735/C4426-P156

>  <fragmenstein_runtime>  (940) 
7.8614115715026855

>  <fragmenstein_outcome>  (940) 
too moved

>  <fragmenstein_mode>  (940) 
expansion

>  <fragmenstein_error>  (940) 


$$$$
C4426-P200
     RDKit          3D

 46 49  0  0  0  0  0  0  0  0999 V2000
    1.7506   -6.9805   33.5375 N   0  0  0  0  0  0  0  0  0  0  0  0
    0.6182   -6.5477   32.9285 C   0  0  0  0  0  0  0  0  0  0  0  0
   -0.5876   -7.0408   33.0921 N   0  0  0  0  0  0  0  0  0  0  0  0
   -1.4720   -6.0179   32.8719 N   0  0  0  0  0  0  0  0  0  0  0  0
   -0.7772   -4.9396   32.5872 C   0  0  0  0  0  0  0  0  0  0  0  0
   -1.0788   -3.5592   32.5520 C   0  0  0  0  0  0  0  0  0  0  0  0
   -0.0983   -2.6800   32.2857 C   0  0  0  0  0  0  0  0  0  0  0  0
    1.2569   -3.0992   31.8973 C   0  0  0  0  0  0  0  0  0  0  0  0
    2.3339   -2.1099   31.6672 C   0  0  0  0  0  0  0  0  0  0  0  0
    2.5354   -1.0817   32.5911 C   0  0  0  0  0  0  0  0  0  0  0  0
    3.5482   -0.1889   32.4990 N   0  0  0  0  0  0  0  0  0  0  0  0
    4.3621   -0.3564   31.4374 C   0  0  0  0  0  0  0  0  0  0  0  0
    4.1747   -1.3733   30.5165 C   0  0  0  0  0  0  0  0  0  0  0  0
    3.1774   -2.2900   30.6140 N   0  0  0  0  0  0  0  0  0  0  0  0
    1.4913   -4.4347   31.7687 C   0  0  0  0  0  0  0  0  0  0  0  0
    2.5556   -4.9938   31.0328 N   0  0  0  0  0  0  0  0  0  0  0  0
    2.1659   -5.3835   29.6367 C   0  0  0  0  0  0  0  0  0  0  0  0
    3.3722   -5.7581   28.7544 C   0  0  0  0  0  0  0  0  0  0  0  0
    3.4430   -6.8702   28.3123 O   0  0  0  0  0  0  0  0  0  0  0  0
    4.2589   -4.6418   28.6238 N   0  0  0  0  0  0  0  0  0  0  0  0
    5.4595   -4.4755   27.8471 C   0  0  0  0  0  0  0  0  0  0  0  0
    6.4322   -3.5416   28.5120 C   0  0  0  0  0  0  0  0  0  0  0  0
    6.9604   -2.4494   27.8084 C   0  0  0  0  0  0  0  0  0  0  0  0
    7.8715   -1.5860   28.4198 C   0  0  0  0  0  0  0  0  0  0  0  0
    8.2700   -1.8094   29.7366 C   0  0  0  0  0  0  0  0  0  0  0  0
    7.7660   -2.9011   30.4411 C   0  0  0  0  0  0  0  0  0  0  0  0
    6.8571   -3.7669   29.8307 C   0  0  0  0  0  0  0  0  0  0  0  0
    0.5210   -5.3093   32.3069 N   0  0  0  0  0  0  0  0  0  0  0  0
    2.5089   -6.3022   33.5900 H   0  0  0  0  0  0  0  0  0  0  0  0
    1.5564   -7.3862   34.4517 H   0  0  0  0  0  0  0  0  0  0  0  0
   -2.0726   -3.2194   32.8180 H   0  0  0  0  0  0  0  0  0  0  0  0
   -0.3268   -1.6165   32.2884 H   0  0  0  0  0  0  0  0  0  0  0  0
    1.8970   -0.9547   33.4597 H   0  0  0  0  0  0  0  0  0  0  0  0
    5.1744    0.3551   31.3380 H   0  0  0  0  0  0  0  0  0  0  0  0
    4.8336   -1.4673   29.6620 H   0  0  0  0  0  0  0  0  0  0  0  0
    3.2839   -4.2746   30.9357 H   0  0  0  0  0  0  0  0  0  0  0  0
    1.4844   -6.2407   29.6772 H   0  0  0  0  0  0  0  0  0  0  0  0
    1.6357   -4.5593   29.1420 H   0  0  0  0  0  0  0  0  0  0  0  0
    3.8352   -3.8284   29.0662 H   0  0  0  0  0  0  0  0  0  0  0  0
    5.1481   -4.0936   26.8687 H   0  0  0  0  0  0  0  0  0  0  0  0
    5.9190   -5.4569   27.6873 H   0  0  0  0  0  0  0  0  0  0  0  0
    6.6745   -2.2712   26.7730 H   0  0  0  0  0  0  0  0  0  0  0  0
    8.2833   -0.7487   27.8619 H   0  0  0  0  0  0  0  0  0  0  0  0
    8.9895   -1.1442   30.2076 H   0  0  0  0  0  0  0  0  0  0  0  0
    8.0913   -3.0868   31.4618 H   0  0  0  0  0  0  0  0  0  0  0  0
    6.4828   -4.6247   30.3863 H   0  0  0  0  0  0  0  0  0  0  0  0
  1  2  1  0
  2  3  2  0
  3  4  1  0
  4  5  2  0
  5  6  1  0
  6  7  2  0
  7  8  1  0
  8  9  1  0
  9 10  2  0
 10 11  1  0
 11 12  2  0
 12 13  1  0
 13 14  2  0
  8 15  2  0
 15 16  1  0
 16 17  1  0
 17 18  1  0
 18 19  2  0
 18 20  1  0
 20 21  1  0
 21 22  1  0
 22 23  2  0
 23 24  1  0
 24 25  2  0
 25 26  1  0
 26 27  2  0
 15 28  1  0
 28  2  1  0
 28  5  1  0
 14  9  1  0
 27 22  1  0
  1 29  1  0
  1 30  1  0
  6 31  1  0
  7 32  1  0
 10 33  1  0
 12 34  1  0
 13 35  1  0
 16 36  1  0
 17 37  1  0
 17 38  1  0
 20 39  1  0
 21 40  1  0
 21 41  1  0
 23 42  1  0
 24 43  1  0
 25 44  1  0
 26 45  1  0
 27 46  1  0
M  END
>  <Energy>  (941) 
191.25397857592009

>  <compound_id>  (941) 
4426

>  <target_id>  (941) 
1

>  <reference_id>  (941) 
200

>  <inspiration_ids>  (941) 
[156, 200]

>  <energy_score>  (941) 
-38.063815386176174

>  <distance_score>  (941) 
2.5955295883496654

>  <path>  (941) 
/opt/xchem-fragalysis-2/maxwin/BulkDock/SCRATCH/505735/C4426-P200/C4426-P200.minimised.mol

>  <scratch_subdir>  (941) 
/opt/xchem-fragalysis-2/maxwin/BulkDock/SCRATCH/505735/C4426-P200

>  <fragmenstein_runtime>  (941) 
6.173849821090698

>  <fragmenstein_outcome>  (941) 
too moved

>  <fragmenstein_mode>  (941) 
expansion

>  <fragmenstein_error>  (941) 


$$$$
C4457-P156
     RDKit          3D

 58 61  0  0  0  0  0  0  0  0999 V2000
    2.4417   -1.3847   36.3843 C   0  0  0  0  0  0  0  0  0  0  0  0
    3.3779   -1.2420   35.1915 C   0  0  0  0  0  0  0  0  0  0  0  0
    2.7979   -0.4658   34.0961 N   0  0  0  0  0  0  0  0  0  0  0  0
    1.6271   -1.0731   33.4534 C   0  0  0  0  0  0  0  0  0  0  0  0
    1.9982   -2.4011   32.8466 C   0  0  0  0  0  0  0  0  0  0  0  0
    3.2020   -2.5975   32.4237 N   0  0  0  0  0  0  0  0  0  0  0  0
    3.5318   -3.9070   32.2280 N   0  0  0  0  0  0  0  0  0  0  0  0
    4.7799   -4.0526   31.4552 C   0  0  0  0  0  0  0  0  0  0  0  0
    4.6056   -3.6022   29.9421 C   0  0  0  0  0  0  0  0  0  0  0  0
    5.9097   -3.7344   29.1582 C   0  0  0  0  0  0  0  0  0  0  0  0
    6.9405   -2.7614   29.6755 C   0  0  0  0  0  0  0  0  0  0  0  0
    3.4727   -4.3653   29.3085 C   0  0  0  0  0  0  0  0  0  0  0  0
    3.6663   -5.6007   28.7351 C   0  0  0  0  0  0  0  0  0  0  0  0
    2.5901   -6.4483   28.7227 C   0  0  0  0  0  0  0  0  0  0  0  0
    1.4037   -6.1558   29.3999 C   0  0  0  0  0  0  0  0  0  0  0  0
    0.4615   -7.2432   29.8817 C   0  0  0  0  0  0  0  0  0  0  0  0
    0.7205   -8.4851   29.2114 O   0  0  0  0  0  0  0  0  0  0  0  0
    1.1225   -4.8197   29.5525 C   0  0  0  0  0  0  0  0  0  0  0  0
    2.1631   -3.9087   29.4909 C   0  0  0  0  0  0  0  0  0  0  0  0
    2.8551   -4.9166   32.9650 C   0  0  0  0  0  0  0  0  0  0  0  0
    3.3493   -5.9420   33.4101 O   0  0  0  0  0  0  0  0  0  0  0  0
    1.3678   -4.7011   33.0345 C   0  0  0  0  0  0  0  0  0  0  0  0
    0.9780   -3.4436   32.7769 C   0  0  0  0  0  0  0  0  0  0  0  0
   -0.3312   -3.1632   32.2542 C   0  0  0  0  0  0  0  0  0  0  0  0
   -1.1662   -4.1689   31.9738 C   0  0  0  0  0  0  0  0  0  0  0  0
   -0.8471   -5.4900   32.3802 C   0  0  0  0  0  0  0  0  0  0  0  0
   -1.4707   -6.6384   32.2444 N   0  0  0  0  0  0  0  0  0  0  0  0
   -0.8233   -7.5511   33.0281 N   0  0  0  0  0  0  0  0  0  0  0  0
    0.2227   -6.9579   33.5637 C   0  0  0  0  0  0  0  0  0  0  0  0
    0.9636   -7.4276   34.5822 N   0  0  0  0  0  0  0  0  0  0  0  0
    0.3782   -5.6962   33.0106 N   0  0  0  0  0  0  0  0  0  0  0  0
    2.9740   -1.8452   37.2232 H   0  0  0  0  0  0  0  0  0  0  0  0
    1.5820   -2.0204   36.1512 H   0  0  0  0  0  0  0  0  0  0  0  0
    2.0729   -0.4090   36.7179 H   0  0  0  0  0  0  0  0  0  0  0  0
    4.2710   -0.7043   35.5318 H   0  0  0  0  0  0  0  0  0  0  0  0
    3.7269   -2.2300   34.8772 H   0  0  0  0  0  0  0  0  0  0  0  0
    3.5221   -0.3698   33.3784 H   0  0  0  0  0  0  0  0  0  0  0  0
    0.7950   -1.1734   34.1567 H   0  0  0  0  0  0  0  0  0  0  0  0
    1.2931   -0.4141   32.6443 H   0  0  0  0  0  0  0  0  0  0  0  0
    5.5243   -3.4197   31.9520 H   0  0  0  0  0  0  0  0  0  0  0  0
    5.1520   -5.0694   31.5254 H   0  0  0  0  0  0  0  0  0  0  0  0
    4.3258   -2.5388   29.9362 H   0  0  0  0  0  0  0  0  0  0  0  0
    5.7339   -3.5263   28.0951 H   0  0  0  0  0  0  0  0  0  0  0  0
    6.3206   -4.7485   29.2267 H   0  0  0  0  0  0  0  0  0  0  0  0
    6.5574   -1.7359   29.6908 H   0  0  0  0  0  0  0  0  0  0  0  0
    7.2837   -3.0195   30.6813 H   0  0  0  0  0  0  0  0  0  0  0  0
    7.8221   -2.7741   29.0254 H   0  0  0  0  0  0  0  0  0  0  0  0
    4.6305   -5.9517   28.3857 H   0  0  0  0  0  0  0  0  0  0  0  0
    2.6709   -7.3753   28.1939 H   0  0  0  0  0  0  0  0  0  0  0  0
   -0.5875   -6.9790   29.7280 H   0  0  0  0  0  0  0  0  0  0  0  0
    0.6594   -7.4128   30.9340 H   0  0  0  0  0  0  0  0  0  0  0  0
    0.4601   -9.1943   29.8396 H   0  0  0  0  0  0  0  0  0  0  0  0
    0.1210   -4.4826   29.7778 H   0  0  0  0  0  0  0  0  0  0  0  0
    1.9751   -2.8731   29.7672 H   0  0  0  0  0  0  0  0  0  0  0  0
   -0.5826   -2.1493   31.9522 H   0  0  0  0  0  0  0  0  0  0  0  0
   -2.0755   -3.9274   31.4470 H   0  0  0  0  0  0  0  0  0  0  0  0
    0.4708   -8.0553   35.2178 H   0  0  0  0  0  0  0  0  0  0  0  0
    1.5951   -6.8039   35.0820 H   0  0  0  0  0  0  0  0  0  0  0  0
  1  2  1  0
  2  3  1  0
  3  4  1  0
  4  5  1  0
  5  6  2  0
  6  7  1  0
  7  8  1  0
  8  9  1  0
  9 10  1  0
 10 11  1  0
  9 12  1  0
 12 13  2  0
 13 14  1  0
 14 15  2  0
 15 16  1  0
 16 17  1  0
 15 18  1  0
 18 19  2  0
  7 20  1  0
 20 21  2  0
 20 22  1  0
 22 23  2  0
 23 24  1  0
 24 25  2  0
 25 26  1  0
 26 27  2  0
 27 28  1  0
 28 29  2  0
 29 30  1  0
 29 31  1  0
 23  5  1  0
 31 26  1  0
 19 12  1  0
 31 22  1  0
  1 32  1  0
  1 33  1  0
  1 34  1  0
  2 35  1  0
  2 36  1  0
  3 37  1  0
  4 38  1  0
  4 39  1  0
  8 40  1  0
  8 41  1  0
  9 42  1  0
 10 43  1  0
 10 44  1  0
 11 45  1  0
 11 46  1  0
 11 47  1  0
 13 48  1  0
 14 49  1  0
 16 50  1  0
 16 51  1  0
 17 52  1  0
 18 53  1  0
 19 54  1  0
 24 55  1  0
 25 56  1  0
 30 57  1  0
 30 58  1  0
M  END
>  <Energy>  (942) 
163.35657007035616

>  <compound_id>  (942) 
4457

>  <target_id>  (942) 
1

>  <reference_id>  (942) 
156

>  <inspiration_ids>  (942) 
[156, 201]

>  <energy_score>  (942) 
-29.93052445151494

>  <distance_score>  (942) 
2.063746927635445

>  <path>  (942) 
/opt/xchem-fragalysis-2/maxwin/BulkDock/SCRATCH/505735/C4457-P156/C4457-P156.minimised.mol

>  <scratch_subdir>  (942) 
/opt/xchem-fragalysis-2/maxwin/BulkDock/SCRATCH/505735/C4457-P156

>  <fragmenstein_runtime>  (942) 
6.827235698699951

>  <fragmenstein_outcome>  (942) 
too moved

>  <fragmenstein_mode>  (942) 
expansion

>  <fragmenstein_error>  (942) 


$$$$
C4457-P201
     RDKit          3D

 58 61  0  0  0  0  0  0  0  0999 V2000
    2.6792   -1.4968   36.3078 C   0  0  0  0  0  0  0  0  0  0  0  0
    3.5610   -1.4087   35.0692 C   0  0  0  0  0  0  0  0  0  0  0  0
    2.9620   -0.6219   33.9930 N   0  0  0  0  0  0  0  0  0  0  0  0
    1.7459   -1.1960   33.4085 C   0  0  0  0  0  0  0  0  0  0  0  0
    2.0424   -2.5367   32.7832 C   0  0  0  0  0  0  0  0  0  0  0  0
    3.2098   -2.7774   32.2854 N   0  0  0  0  0  0  0  0  0  0  0  0
    3.4667   -4.0973   32.0456 N   0  0  0  0  0  0  0  0  0  0  0  0
    4.6384   -4.2938   31.1731 C   0  0  0  0  0  0  0  0  0  0  0  0
    4.3482   -3.9691   29.6501 C   0  0  0  0  0  0  0  0  0  0  0  0
    5.6215   -4.0580   28.8106 C   0  0  0  0  0  0  0  0  0  0  0  0
    6.6183   -2.9997   29.2283 C   0  0  0  0  0  0  0  0  0  0  0  0
    3.2271   -4.8432   29.1361 C   0  0  0  0  0  0  0  0  0  0  0  0
    3.4058   -6.0548   28.4850 C   0  0  0  0  0  0  0  0  0  0  0  0
    2.3589   -6.9673   28.4911 C   0  0  0  0  0  0  0  0  0  0  0  0
    1.2560   -6.7600   29.3095 C   0  0  0  0  0  0  0  0  0  0  0  0
    0.3827   -7.8996   29.7817 C   0  0  0  0  0  0  0  0  0  0  0  0
   -0.9886   -7.5623   29.7166 O   0  0  0  0  0  0  0  0  0  0  0  0
    0.9578   -5.4443   29.5966 C   0  0  0  0  0  0  0  0  0  0  0  0
    1.9278   -4.4711   29.4691 C   0  0  0  0  0  0  0  0  0  0  0  0
    2.7820   -5.1024   32.7831 C   0  0  0  0  0  0  0  0  0  0  0  0
    3.2420   -6.1799   33.1297 O   0  0  0  0  0  0  0  0  0  0  0  0
    1.3206   -4.8182   32.9738 C   0  0  0  0  0  0  0  0  0  0  0  0
    0.9787   -3.5383   32.7607 C   0  0  0  0  0  0  0  0  0  0  0  0
   -0.3368   -3.1932   32.2995 C   0  0  0  0  0  0  0  0  0  0  0  0
   -1.2197   -4.1571   32.0250 C   0  0  0  0  0  0  0  0  0  0  0  0
   -0.9337   -5.5044   32.3553 C   0  0  0  0  0  0  0  0  0  0  0  0
   -1.5750   -6.6314   32.1461 N   0  0  0  0  0  0  0  0  0  0  0  0
   -0.9331   -7.6047   32.8537 N   0  0  0  0  0  0  0  0  0  0  0  0
    0.0954   -7.0483   33.4586 C   0  0  0  0  0  0  0  0  0  0  0  0
    0.7423   -7.5425   34.5306 N   0  0  0  0  0  0  0  0  0  0  0  0
    0.2943   -5.7760   32.9478 N   0  0  0  0  0  0  0  0  0  0  0  0
    1.7827   -2.0972   36.1256 H   0  0  0  0  0  0  0  0  0  0  0  0
    3.2319   -1.9704   37.1260 H   0  0  0  0  0  0  0  0  0  0  0  0
    2.3696   -0.5023   36.6456 H   0  0  0  0  0  0  0  0  0  0  0  0
    4.4925   -0.9076   35.3584 H   0  0  0  0  0  0  0  0  0  0  0  0
    3.8493   -2.4146   34.7491 H   0  0  0  0  0  0  0  0  0  0  0  0
    3.6560   -0.5558   33.2428 H   0  0  0  0  0  0  0  0  0  0  0  0
    0.9453   -1.2702   34.1506 H   0  0  0  0  0  0  0  0  0  0  0  0
    1.3935   -0.5267   32.6157 H   0  0  0  0  0  0  0  0  0  0  0  0
    5.0221   -5.2985   31.2778 H   0  0  0  0  0  0  0  0  0  0  0  0
    5.4171   -3.6282   31.5615 H   0  0  0  0  0  0  0  0  0  0  0  0
    3.9970   -2.9285   29.5911 H   0  0  0  0  0  0  0  0  0  0  0  0
    5.3800   -3.9102   27.7504 H   0  0  0  0  0  0  0  0  0  0  0  0
    6.0901   -5.0454   28.8996 H   0  0  0  0  0  0  0  0  0  0  0  0
    7.4487   -2.9724   28.5144 H   0  0  0  0  0  0  0  0  0  0  0  0
    6.1668   -2.0026   29.2473 H   0  0  0  0  0  0  0  0  0  0  0  0
    7.0534   -3.2059   30.2101 H   0  0  0  0  0  0  0  0  0  0  0  0
    4.3498   -6.3204   28.0189 H   0  0  0  0  0  0  0  0  0  0  0  0
    2.4146   -7.8768   27.9107 H   0  0  0  0  0  0  0  0  0  0  0  0
    0.6397   -8.1323   30.8115 H   0  0  0  0  0  0  0  0  0  0  0  0
    0.5367   -8.7896   29.1668 H   0  0  0  0  0  0  0  0  0  0  0  0
   -1.2969   -7.5274   30.6500 H   0  0  0  0  0  0  0  0  0  0  0  0
   -0.0332   -5.1761   29.9330 H   0  0  0  0  0  0  0  0  0  0  0  0
    1.7057   -3.4574   29.7945 H   0  0  0  0  0  0  0  0  0  0  0  0
   -0.5687   -2.1609   32.0506 H   0  0  0  0  0  0  0  0  0  0  0  0
   -2.1463   -3.8653   31.5675 H   0  0  0  0  0  0  0  0  0  0  0  0
    0.1893   -8.2257   35.0606 H   0  0  0  0  0  0  0  0  0  0  0  0
    1.2276   -6.9084   35.1585 H   0  0  0  0  0  0  0  0  0  0  0  0
  1  2  1  0
  2  3  1  0
  3  4  1  0
  4  5  1  0
  5  6  2  0
  6  7  1  0
  7  8  1  0
  8  9  1  0
  9 10  1  0
 10 11  1  0
  9 12  1  0
 12 13  2  0
 13 14  1  0
 14 15  2  0
 15 16  1  0
 16 17  1  0
 15 18  1  0
 18 19  2  0
  7 20  1  0
 20 21  2  0
 20 22  1  0
 22 23  2  0
 23 24  1  0
 24 25  2  0
 25 26  1  0
 26 27  2  0
 27 28  1  0
 28 29  2  0
 29 30  1  0
 29 31  1  0
 23  5  1  0
 31 26  1  0
 19 12  1  0
 31 22  1  0
  1 32  1  0
  1 33  1  0
  1 34  1  0
  2 35  1  0
  2 36  1  0
  3 37  1  0
  4 38  1  0
  4 39  1  0
  8 40  1  0
  8 41  1  0
  9 42  1  0
 10 43  1  0
 10 44  1  0
 11 45  1  0
 11 46  1  0
 11 47  1  0
 13 48  1  0
 14 49  1  0
 16 50  1  0
 16 51  1  0
 17 52  1  0
 18 53  1  0
 19 54  1  0
 24 55  1  0
 25 56  1  0
 30 57  1  0
 30 58  1  0
M  END
>  <Energy>  (943) 
158.61166898733958

>  <compound_id>  (943) 
4457

>  <target_id>  (943) 
1

>  <reference_id>  (943) 
201

>  <inspiration_ids>  (943) 
[156, 201]

>  <energy_score>  (943) 
-34.67542553453126

>  <distance_score>  (943) 
1.954808361309739

>  <path>  (943) 
/opt/xchem-fragalysis-2/maxwin/BulkDock/SCRATCH/505735/C4457-P201/C4457-P201.minimised.mol

>  <scratch_subdir>  (943) 
/opt/xchem-fragalysis-2/maxwin/BulkDock/SCRATCH/505735/C4457-P201

>  <fragmenstein_runtime>  (943) 
6.643273115158081

>  <fragmenstein_outcome>  (943) 
too moved

>  <fragmenstein_mode>  (943) 
expansion

>  <fragmenstein_error>  (943) 


$$$$
C4427-P156
     RDKit          3D

 48 52  0  0  0  0  0  0  0  0999 V2000
   -1.2136   -6.3949   34.9716 N   0  0  0  0  0  0  0  0  0  0  0  0
   -1.1734   -6.7903   33.6891 C   0  0  0  0  0  0  0  0  0  0  0  0
   -1.4788   -7.9780   33.2201 N   0  0  0  0  0  0  0  0  0  0  0  0
   -1.0795   -8.0480   31.9132 N   0  0  0  0  0  0  0  0  0  0  0  0
   -0.4881   -6.9112   31.6422 C   0  0  0  0  0  0  0  0  0  0  0  0
   -0.7226   -6.0089   32.6670 N   0  0  0  0  0  0  0  0  0  0  0  0
   -0.1421   -4.6608   32.6072 C   0  0  0  0  0  0  0  0  0  0  0  0
   -0.3923   -3.6560   33.7849 C   0  0  0  0  0  0  0  0  0  0  0  0
   -0.3275   -2.1663   33.2661 C   0  0  0  0  0  0  0  0  0  0  0  0
   -0.2251   -2.1860   31.7351 C   0  0  0  0  0  0  0  0  0  0  0  0
   -0.5450   -1.0237   30.8316 C   0  0  0  0  0  0  0  0  0  0  0  0
    0.0822    0.1993   31.1099 C   0  0  0  0  0  0  0  0  0  0  0  0
    0.1435    1.2047   30.1429 C   0  0  0  0  0  0  0  0  0  0  0  0
   -0.4290    1.0167   28.8883 C   0  0  0  0  0  0  0  0  0  0  0  0
   -1.0837   -0.1706   28.6042 C   0  0  0  0  0  0  0  0  0  0  0  0
   -1.1595   -1.1706   29.5711 C   0  0  0  0  0  0  0  0  0  0  0  0
   -1.0007   -3.6899   31.3036 S   0  0  0  0  0  0  0  0  0  0  0  0
   -2.4064   -3.6008   31.6587 O   0  0  0  0  0  0  0  0  0  0  0  0
   -0.6031   -4.0809   29.9736 O   0  0  0  0  0  0  0  0  0  0  0  0
    1.3673   -4.9589   32.3034 C   0  0  0  0  0  0  0  0  0  0  0  0
    2.4092   -3.9004   32.5959 C   0  0  0  0  0  0  0  0  0  0  0  0
    2.7697   -3.5679   33.9005 C   0  0  0  0  0  0  0  0  0  0  0  0
    3.6004   -2.5459   34.2014 N   0  0  0  0  0  0  0  0  0  0  0  0
    4.1398   -1.9026   33.1460 C   0  0  0  0  0  0  0  0  0  0  0  0
    3.8444   -2.2610   31.8467 C   0  0  0  0  0  0  0  0  0  0  0  0
    2.9703   -3.2535   31.5512 N   0  0  0  0  0  0  0  0  0  0  0  0
    1.5214   -5.5928   30.8909 C   0  0  0  0  0  0  0  0  0  0  0  0
    0.4248   -6.6178   30.5154 C   0  0  0  0  0  0  0  0  0  0  0  0
   -1.4894   -7.1511   35.5992 H   0  0  0  0  0  0  0  0  0  0  0  0
   -1.8224   -5.5953   35.1626 H   0  0  0  0  0  0  0  0  0  0  0  0
    0.2507   -3.8225   34.6505 H   0  0  0  0  0  0  0  0  0  0  0  0
   -1.4052   -3.7817   34.1688 H   0  0  0  0  0  0  0  0  0  0  0  0
    0.5210   -1.6350   33.7094 H   0  0  0  0  0  0  0  0  0  0  0  0
   -1.2329   -1.6364   33.5867 H   0  0  0  0  0  0  0  0  0  0  0  0
    0.8164   -2.3563   31.4786 H   0  0  0  0  0  0  0  0  0  0  0  0
    0.6048    0.3578   32.0509 H   0  0  0  0  0  0  0  0  0  0  0  0
    0.6601    2.1378   30.3583 H   0  0  0  0  0  0  0  0  0  0  0  0
   -0.3710    1.8005   28.1370 H   0  0  0  0  0  0  0  0  0  0  0  0
   -1.5264   -0.3329   27.6232 H   0  0  0  0  0  0  0  0  0  0  0  0
   -1.6575   -2.0843   29.2527 H   0  0  0  0  0  0  0  0  0  0  0  0
    1.6683   -5.7646   32.9968 H   0  0  0  0  0  0  0  0  0  0  0  0
    2.3972   -4.1105   34.7636 H   0  0  0  0  0  0  0  0  0  0  0  0
    4.8267   -1.0953   33.3737 H   0  0  0  0  0  0  0  0  0  0  0  0
    4.2891   -1.7492   30.9998 H   0  0  0  0  0  0  0  0  0  0  0  0
    1.5817   -4.8300   30.1058 H   0  0  0  0  0  0  0  0  0  0  0  0
    2.5075   -6.0497   30.8394 H   0  0  0  0  0  0  0  0  0  0  0  0
    0.8709   -7.5514   30.1681 H   0  0  0  0  0  0  0  0  0  0  0  0
   -0.1675   -6.2765   29.6673 H   0  0  0  0  0  0  0  0  0  0  0  0
  1  2  1  0
  2  3  2  0
  3  4  1  0
  4  5  2  0
  5  6  1  0
  6  7  1  0
  7  8  1  0
  8  9  1  0
  9 10  1  0
 10 11  1  0
 11 12  2  0
 12 13  1  0
 13 14  2  0
 14 15  1  0
 15 16  2  0
 10 17  1  0
 17 18  2  0
 17 19  2  0
  7 20  1  0
 20 21  1  0
 21 22  2  0
 22 23  1  0
 23 24  2  0
 24 25  1  0
 25 26  2  0
 20 27  1  0
 27 28  1  0
  6  2  1  0
 17  7  1  0
 26 21  1  0
 28  5  1  0
 16 11  1  0
  1 29  1  0
  1 30  1  0
  8 31  1  0
  8 32  1  0
  9 33  1  0
  9 34  1  0
 10 35  1  0
 12 36  1  0
 13 37  1  0
 14 38  1  0
 15 39  1  0
 16 40  1  0
 20 41  1  0
 22 42  1  0
 24 43  1  0
 25 44  1  0
 27 45  1  0
 27 46  1  0
 28 47  1  0
 28 48  1  0
M  END
>  <Energy>  (944) 
100.10272328741233

>  <compound_id>  (944) 
4427

>  <target_id>  (944) 
1

>  <reference_id>  (944) 
156

>  <inspiration_ids>  (944) 
[156, 202]

>  <energy_score>  (944) 
-51.90917105480537

>  <distance_score>  (944) 
1.165157097475375

>  <path>  (944) 
/opt/xchem-fragalysis-2/maxwin/BulkDock/SCRATCH/505735/C4427-P156/C4427-P156.minimised.mol

>  <scratch_subdir>  (944) 
/opt/xchem-fragalysis-2/maxwin/BulkDock/SCRATCH/505735/C4427-P156

>  <fragmenstein_runtime>  (944) 
3.243532180786133

>  <fragmenstein_outcome>  (944) 
too moved

>  <fragmenstein_mode>  (944) 
expansion

>  <fragmenstein_error>  (944) 


$$$$
C4427-P202
     RDKit          3D

 48 52  0  0  0  0  0  0  0  0999 V2000
   -1.2036   -6.4038   34.9369 N   0  0  0  0  0  0  0  0  0  0  0  0
   -1.1760   -6.7966   33.6528 C   0  0  0  0  0  0  0  0  0  0  0  0
   -1.5018   -7.9755   33.1778 N   0  0  0  0  0  0  0  0  0  0  0  0
   -1.0913   -8.0522   31.8750 N   0  0  0  0  0  0  0  0  0  0  0  0
   -0.4864   -6.9217   31.6100 C   0  0  0  0  0  0  0  0  0  0  0  0
   -0.7220   -6.0178   32.6322 N   0  0  0  0  0  0  0  0  0  0  0  0
   -0.1435   -4.6703   32.5726 C   0  0  0  0  0  0  0  0  0  0  0  0
   -0.3942   -3.6670   33.7496 C   0  0  0  0  0  0  0  0  0  0  0  0
   -0.3287   -2.1796   33.2314 C   0  0  0  0  0  0  0  0  0  0  0  0
   -0.2326   -2.1958   31.6989 C   0  0  0  0  0  0  0  0  0  0  0  0
   -0.5764   -1.0281   30.8114 C   0  0  0  0  0  0  0  0  0  0  0  0
   -0.0283    0.2202   31.1385 C   0  0  0  0  0  0  0  0  0  0  0  0
   -0.0016    1.2540   30.2004 C   0  0  0  0  0  0  0  0  0  0  0  0
   -0.5270    1.0672   28.9250 C   0  0  0  0  0  0  0  0  0  0  0  0
   -1.1008   -0.1484   28.5904 C   0  0  0  0  0  0  0  0  0  0  0  0
   -1.1409   -1.1773   29.5278 C   0  0  0  0  0  0  0  0  0  0  0  0
   -1.0051   -3.7031   31.2672 S   0  0  0  0  0  0  0  0  0  0  0  0
   -2.4122   -3.6173   31.6177 O   0  0  0  0  0  0  0  0  0  0  0  0
   -0.6041   -4.0972   29.9390 O   0  0  0  0  0  0  0  0  0  0  0  0
    1.3666   -4.9680   32.2724 C   0  0  0  0  0  0  0  0  0  0  0  0
    2.4057   -3.9075   32.5665 C   0  0  0  0  0  0  0  0  0  0  0  0
    2.7669   -3.5791   33.8723 C   0  0  0  0  0  0  0  0  0  0  0  0
    3.5955   -2.5565   34.1769 N   0  0  0  0  0  0  0  0  0  0  0  0
    4.1312   -1.9071   33.1234 C   0  0  0  0  0  0  0  0  0  0  0  0
    3.8347   -2.2608   31.8229 C   0  0  0  0  0  0  0  0  0  0  0  0
    2.9633   -3.2548   31.5238 N   0  0  0  0  0  0  0  0  0  0  0  0
    1.5248   -5.6076   30.8633 C   0  0  0  0  0  0  0  0  0  0  0  0
    0.4324   -6.6338   30.4891 C   0  0  0  0  0  0  0  0  0  0  0  0
   -1.4674   -7.1671   35.5607 H   0  0  0  0  0  0  0  0  0  0  0  0
   -1.8364   -5.6213   35.1263 H   0  0  0  0  0  0  0  0  0  0  0  0
    0.2477   -3.8339   34.6159 H   0  0  0  0  0  0  0  0  0  0  0  0
   -1.4071   -3.7912   34.1329 H   0  0  0  0  0  0  0  0  0  0  0  0
    0.5225   -1.6499   33.6715 H   0  0  0  0  0  0  0  0  0  0  0  0
   -1.2315   -1.6482   33.5570 H   0  0  0  0  0  0  0  0  0  0  0  0
    0.8089   -2.3541   31.4341 H   0  0  0  0  0  0  0  0  0  0  0  0
    0.4562    0.3841   32.0986 H   0  0  0  0  0  0  0  0  0  0  0  0
    0.4536    2.2089   30.4548 H   0  0  0  0  0  0  0  0  0  0  0  0
   -0.4959    1.8737   28.1965 H   0  0  0  0  0  0  0  0  0  0  0  0
   -1.5084   -0.3095   27.5940 H   0  0  0  0  0  0  0  0  0  0  0  0
   -1.5761   -2.1083   29.1705 H   0  0  0  0  0  0  0  0  0  0  0  0
    1.6665   -5.7715   32.9688 H   0  0  0  0  0  0  0  0  0  0  0  0
    2.3959   -4.1261   34.7334 H   0  0  0  0  0  0  0  0  0  0  0  0
    4.8159   -1.0985   33.3533 H   0  0  0  0  0  0  0  0  0  0  0  0
    4.2764   -1.7437   30.9776 H   0  0  0  0  0  0  0  0  0  0  0  0
    1.5892   -4.8478   30.0756 H   0  0  0  0  0  0  0  0  0  0  0  0
    2.5058   -6.0727   30.8146 H   0  0  0  0  0  0  0  0  0  0  0  0
    0.8795   -7.5678   30.1434 H   0  0  0  0  0  0  0  0  0  0  0  0
   -0.1574   -6.2906   29.6426 H   0  0  0  0  0  0  0  0  0  0  0  0
  1  2  1  0
  2  3  2  0
  3  4  1  0
  4  5  2  0
  5  6  1  0
  6  7  1  0
  7  8  1  0
  8  9  1  0
  9 10  1  0
 10 11  1  0
 11 12  2  0
 12 13  1  0
 13 14  2  0
 14 15  1  0
 15 16  2  0
 10 17  1  0
 17 18  2  0
 17 19  2  0
  7 20  1  0
 20 21  1  0
 21 22  2  0
 22 23  1  0
 23 24  2  0
 24 25  1  0
 25 26  2  0
 20 27  1  0
 27 28  1  0
  6  2  1  0
 17  7  1  0
 26 21  1  0
 28  5  1  0
 16 11  1  0
  1 29  1  0
  1 30  1  0
  8 31  1  0
  8 32  1  0
  9 33  1  0
  9 34  1  0
 10 35  1  0
 12 36  1  0
 13 37  1  0
 14 38  1  0
 15 39  1  0
 16 40  1  0
 20 41  1  0
 22 42  1  0
 24 43  1  0
 25 44  1  0
 27 45  1  0
 27 46  1  0
 28 47  1  0
 28 48  1  0
M  END
>  <Energy>  (945) 
98.886185795522337

>  <compound_id>  (945) 
4427

>  <target_id>  (945) 
1

>  <reference_id>  (945) 
202

>  <inspiration_ids>  (945) 
[156, 202]

>  <energy_score>  (945) 
-53.1257085466969

>  <distance_score>  (945) 
1.1678645469712077

>  <path>  (945) 
/opt/xchem-fragalysis-2/maxwin/BulkDock/SCRATCH/505735/C4427-P202/C4427-P202.minimised.mol

>  <scratch_subdir>  (945) 
/opt/xchem-fragalysis-2/maxwin/BulkDock/SCRATCH/505735/C4427-P202

>  <fragmenstein_runtime>  (945) 
3.908273220062256

>  <fragmenstein_outcome>  (945) 
too moved

>  <fragmenstein_mode>  (945) 
expansion

>  <fragmenstein_error>  (945) 


$$$$
C4427-P157
     RDKit          3D

 48 52  0  0  0  0  0  0  0  0999 V2000
   -1.2071   -5.6729   34.3419 N   0  0  0  0  0  0  0  0  0  0  0  0
   -1.3063   -6.1716   33.0950 C   0  0  0  0  0  0  0  0  0  0  0  0
   -1.6585   -7.3970   32.7756 N   0  0  0  0  0  0  0  0  0  0  0  0
   -1.2304   -7.6349   31.5031 N   0  0  0  0  0  0  0  0  0  0  0  0
   -0.5275   -6.5791   31.1749 C   0  0  0  0  0  0  0  0  0  0  0  0
   -0.9022   -5.5016   31.9499 N   0  0  0  0  0  0  0  0  0  0  0  0
   -0.1595   -4.2167   31.7956 C   0  0  0  0  0  0  0  0  0  0  0  0
   -0.8205   -2.9821   32.4689 C   0  0  0  0  0  0  0  0  0  0  0  0
   -1.8688   -2.3541   31.5351 C   0  0  0  0  0  0  0  0  0  0  0  0
   -1.3510   -2.3199   30.0925 C   0  0  0  0  0  0  0  0  0  0  0  0
   -0.9074   -1.0107   29.4757 C   0  0  0  0  0  0  0  0  0  0  0  0
    0.0707   -0.2006   30.0603 C   0  0  0  0  0  0  0  0  0  0  0  0
    0.4900    0.9809   29.4406 C   0  0  0  0  0  0  0  0  0  0  0  0
   -0.0854    1.3955   28.2438 C   0  0  0  0  0  0  0  0  0  0  0  0
   -1.0651    0.6114   27.6507 C   0  0  0  0  0  0  0  0  0  0  0  0
   -1.4535   -0.5911   28.2480 C   0  0  0  0  0  0  0  0  0  0  0  0
   -0.0804   -3.5594   29.9939 S   0  0  0  0  0  0  0  0  0  0  0  0
    1.2064   -2.9535   29.7388 O   0  0  0  0  0  0  0  0  0  0  0  0
   -0.5938   -4.5428   29.0697 O   0  0  0  0  0  0  0  0  0  0  0  0
    1.2570   -4.6310   32.2650 C   0  0  0  0  0  0  0  0  0  0  0  0
    2.2248   -3.5262   32.5973 C   0  0  0  0  0  0  0  0  0  0  0  0
    2.1202   -2.8357   33.8061 C   0  0  0  0  0  0  0  0  0  0  0  0
    2.8547   -1.7412   34.0964 N   0  0  0  0  0  0  0  0  0  0  0  0
    3.7420   -1.3769   33.1452 C   0  0  0  0  0  0  0  0  0  0  0  0
    3.8940   -2.0848   31.9684 C   0  0  0  0  0  0  0  0  0  0  0  0
    3.1513   -3.1771   31.6849 N   0  0  0  0  0  0  0  0  0  0  0  0
    1.8148   -5.7689   31.3533 C   0  0  0  0  0  0  0  0  0  0  0  0
    0.7774   -6.5601   30.5120 C   0  0  0  0  0  0  0  0  0  0  0  0
   -1.3493   -6.4133   35.0337 H   0  0  0  0  0  0  0  0  0  0  0  0
   -1.9163   -4.9633   34.5620 H   0  0  0  0  0  0  0  0  0  0  0  0
   -0.0801   -2.1958   32.6379 H   0  0  0  0  0  0  0  0  0  0  0  0
   -1.2630   -3.2066   33.4409 H   0  0  0  0  0  0  0  0  0  0  0  0
   -2.7749   -2.9656   31.5715 H   0  0  0  0  0  0  0  0  0  0  0  0
   -2.1588   -1.3578   31.8872 H   0  0  0  0  0  0  0  0  0  0  0  0
   -2.1630   -2.7082   29.4704 H   0  0  0  0  0  0  0  0  0  0  0  0
    0.5580   -0.4896   30.9883 H   0  0  0  0  0  0  0  0  0  0  0  0
    1.2683    1.5860   29.8991 H   0  0  0  0  0  0  0  0  0  0  0  0
    0.2316    2.3221   27.7736 H   0  0  0  0  0  0  0  0  0  0  0  0
   -1.5184    0.9114   26.7098 H   0  0  0  0  0  0  0  0  0  0  0  0
   -2.1779   -1.2136   27.7216 H   0  0  0  0  0  0  0  0  0  0  0  0
    1.1454   -5.1225   33.2449 H   0  0  0  0  0  0  0  0  0  0  0  0
    1.4092   -3.1254   34.5741 H   0  0  0  0  0  0  0  0  0  0  0  0
    4.3405   -0.4987   33.3594 H   0  0  0  0  0  0  0  0  0  0  0  0
    4.6140   -1.7903   31.2132 H   0  0  0  0  0  0  0  0  0  0  0  0
    2.5963   -5.4081   30.6759 H   0  0  0  0  0  0  0  0  0  0  0  0
    2.2959   -6.4607   32.0478 H   0  0  0  0  0  0  0  0  0  0  0  0
    0.7717   -6.1587   29.5109 H   0  0  0  0  0  0  0  0  0  0  0  0
    1.0153   -7.6069   30.3640 H   0  0  0  0  0  0  0  0  0  0  0  0
  1  2  1  0
  2  3  2  0
  3  4  1  0
  4  5  2  0
  5  6  1  0
  6  7  1  0
  7  8  1  0
  8  9  1  0
  9 10  1  0
 10 11  1  0
 11 12  2  0
 12 13  1  0
 13 14  2  0
 14 15  1  0
 15 16  2  0
 10 17  1  0
 17 18  2  0
 17 19  2  0
  7 20  1  0
 20 21  1  0
 21 22  2  0
 22 23  1  0
 23 24  2  0
 24 25  1  0
 25 26  2  0
 20 27  1  0
 27 28  1  0
  6  2  1  0
 17  7  1  0
 26 21  1  0
 28  5  1  0
 16 11  1  0
  1 29  1  0
  1 30  1  0
  8 31  1  0
  8 32  1  0
  9 33  1  0
  9 34  1  0
 10 35  1  0
 12 36  1  0
 13 37  1  0
 14 38  1  0
 15 39  1  0
 16 40  1  0
 20 41  1  0
 22 42  1  0
 24 43  1  0
 25 44  1  0
 27 45  1  0
 27 46  1  0
 28 47  1  0
 28 48  1  0
M  END
>  <Energy>  (946) 
106.08012068088763

>  <compound_id>  (946) 
4427

>  <target_id>  (946) 
1

>  <reference_id>  (946) 
157

>  <inspiration_ids>  (946) 
[157, 13]

>  <energy_score>  (946) 
-28.899652382660804

>  <distance_score>  (946) 
1.3899175482738424

>  <path>  (946) 
/opt/xchem-fragalysis-2/maxwin/BulkDock/SCRATCH/505735/C4427-P157/C4427-P157.minimised.mol

>  <scratch_subdir>  (946) 
/opt/xchem-fragalysis-2/maxwin/BulkDock/SCRATCH/505735/C4427-P157

>  <fragmenstein_runtime>  (946) 
6.053192138671875

>  <fragmenstein_outcome>  (946) 
too moved

>  <fragmenstein_mode>  (946) 
expansion

>  <fragmenstein_error>  (946) 


$$$$
C4427-P13
     RDKit          3D

 48 52  0  0  0  0  0  0  0  0999 V2000
   -1.2210   -5.8126   34.2797 N   0  0  0  0  0  0  0  0  0  0  0  0
   -1.2480   -6.2690   33.0133 C   0  0  0  0  0  0  0  0  0  0  0  0
   -1.5672   -7.4855   32.6297 N   0  0  0  0  0  0  0  0  0  0  0  0
   -1.0235   -7.6865   31.3921 N   0  0  0  0  0  0  0  0  0  0  0  0
   -0.3341   -6.6015   31.1315 C   0  0  0  0  0  0  0  0  0  0  0  0
   -0.7898   -5.5586   31.9196 N   0  0  0  0  0  0  0  0  0  0  0  0
   -0.1020   -4.2403   31.8236 C   0  0  0  0  0  0  0  0  0  0  0  0
   -0.7889   -3.0426   32.5452 C   0  0  0  0  0  0  0  0  0  0  0  0
   -1.8621   -2.3909   31.6542 C   0  0  0  0  0  0  0  0  0  0  0  0
   -1.3889   -2.3271   30.1990 C   0  0  0  0  0  0  0  0  0  0  0  0
   -0.9833   -1.0187   29.5537 C   0  0  0  0  0  0  0  0  0  0  0  0
    0.0038   -0.1915   30.0984 C   0  0  0  0  0  0  0  0  0  0  0  0
    0.4176    0.9672   29.4328 C   0  0  0  0  0  0  0  0  0  0  0  0
   -0.1713    1.3407   28.2285 C   0  0  0  0  0  0  0  0  0  0  0  0
   -1.1639    0.5416   27.6764 C   0  0  0  0  0  0  0  0  0  0  0  0
   -1.5536   -0.6350   28.3232 C   0  0  0  0  0  0  0  0  0  0  0  0
   -0.0923   -3.5403   30.0564 S   0  0  0  0  0  0  0  0  0  0  0  0
    1.1800   -2.9194   29.7683 O   0  0  0  0  0  0  0  0  0  0  0  0
   -0.6302   -4.5227   29.1502 O   0  0  0  0  0  0  0  0  0  0  0  0
    1.3371   -4.6131   32.2889 C   0  0  0  0  0  0  0  0  0  0  0  0
    2.2612   -3.4756   32.6354 C   0  0  0  0  0  0  0  0  0  0  0  0
    2.1613   -2.8310   33.8689 C   0  0  0  0  0  0  0  0  0  0  0  0
    2.8586   -1.7171   34.1765 N   0  0  0  0  0  0  0  0  0  0  0  0
    3.7063   -1.2859   33.2172 C   0  0  0  0  0  0  0  0  0  0  0  0
    3.8520   -1.9443   32.0118 C   0  0  0  0  0  0  0  0  0  0  0  0
    3.1420   -3.0522   31.7088 N   0  0  0  0  0  0  0  0  0  0  0  0
    1.9708   -5.7179   31.3798 C   0  0  0  0  0  0  0  0  0  0  0  0
    0.9822   -6.4941   30.4803 C   0  0  0  0  0  0  0  0  0  0  0  0
   -1.9155   -5.0844   34.4822 H   0  0  0  0  0  0  0  0  0  0  0  0
   -1.4092   -6.5707   34.9379 H   0  0  0  0  0  0  0  0  0  0  0  0
   -0.0630   -2.2461   32.7297 H   0  0  0  0  0  0  0  0  0  0  0  0
   -1.2073   -3.3079   33.5171 H   0  0  0  0  0  0  0  0  0  0  0  0
   -2.7690   -3.0012   31.7058 H   0  0  0  0  0  0  0  0  0  0  0  0
   -2.1380   -1.4012   32.0350 H   0  0  0  0  0  0  0  0  0  0  0  0
   -2.2196   -2.7240   29.6046 H   0  0  0  0  0  0  0  0  0  0  0  0
    0.5054   -0.4551   31.0265 H   0  0  0  0  0  0  0  0  0  0  0  0
    1.2035    1.5849   29.8599 H   0  0  0  0  0  0  0  0  0  0  0  0
    0.1415    2.2489   27.7213 H   0  0  0  0  0  0  0  0  0  0  0  0
   -1.6257    0.8082   26.7291 H   0  0  0  0  0  0  0  0  0  0  0  0
   -2.2909   -1.2700   27.8296 H   0  0  0  0  0  0  0  0  0  0  0  0
    1.2283   -5.1205   33.2618 H   0  0  0  0  0  0  0  0  0  0  0  0
    1.4845   -3.1752   34.6450 H   0  0  0  0  0  0  0  0  0  0  0  0
    4.2777   -0.3942   33.4487 H   0  0  0  0  0  0  0  0  0  0  0  0
    4.5397   -1.5966   31.2494 H   0  0  0  0  0  0  0  0  0  0  0  0
    2.7722   -5.3243   30.7444 H   0  0  0  0  0  0  0  0  0  0  0  0
    2.4517   -6.4233   32.0652 H   0  0  0  0  0  0  0  0  0  0  0  0
    0.9691   -6.0011   29.5178 H   0  0  0  0  0  0  0  0  0  0  0  0
    1.2960   -7.5065   30.2479 H   0  0  0  0  0  0  0  0  0  0  0  0
  1  2  1  0
  2  3  2  0
  3  4  1  0
  4  5  2  0
  5  6  1  0
  6  7  1  0
  7  8  1  0
  8  9  1  0
  9 10  1  0
 10 11  1  0
 11 12  2  0
 12 13  1  0
 13 14  2  0
 14 15  1  0
 15 16  2  0
 10 17  1  0
 17 18  2  0
 17 19  2  0
  7 20  1  0
 20 21  1  0
 21 22  2  0
 22 23  1  0
 23 24  2  0
 24 25  1  0
 25 26  2  0
 20 27  1  0
 27 28  1  0
  6  2  1  0
 17  7  1  0
 26 21  1  0
 28  5  1  0
 16 11  1  0
  1 29  1  0
  1 30  1  0
  8 31  1  0
  8 32  1  0
  9 33  1  0
  9 34  1  0
 10 35  1  0
 12 36  1  0
 13 37  1  0
 14 38  1  0
 15 39  1  0
 16 40  1  0
 20 41  1  0
 22 42  1  0
 24 43  1  0
 25 44  1  0
 27 45  1  0
 27 46  1  0
 28 47  1  0
 28 48  1  0
M  END
>  <Energy>  (947) 
103.18294621379005

>  <compound_id>  (947) 
4427

>  <target_id>  (947) 
1

>  <reference_id>  (947) 
13

>  <inspiration_ids>  (947) 
[157, 13]

>  <energy_score>  (947) 
-31.796826849757792

>  <distance_score>  (947) 
1.4124947659128042

>  <path>  (947) 
/opt/xchem-fragalysis-2/maxwin/BulkDock/SCRATCH/505735/C4427-P13/C4427-P13.minimised.mol

>  <scratch_subdir>  (947) 
/opt/xchem-fragalysis-2/maxwin/BulkDock/SCRATCH/505735/C4427-P13

>  <fragmenstein_runtime>  (947) 
6.155933141708374

>  <fragmenstein_outcome>  (947) 
too moved

>  <fragmenstein_mode>  (947) 
expansion

>  <fragmenstein_error>  (947) 


$$$$
C4429-P157
     RDKit          3D

 38 42  0  0  0  0  0  0  0  0999 V2000
   -0.9678   -7.7295   34.5097 N   0  0  0  0  0  0  0  0  0  0  0  0
   -0.8577   -7.5476   33.1774 C   0  0  0  0  0  0  0  0  0  0  0  0
   -1.2607   -8.3811   32.2397 N   0  0  0  0  0  0  0  0  0  0  0  0
   -1.1073   -7.7858   31.0154 N   0  0  0  0  0  0  0  0  0  0  0  0
   -0.6426   -6.5792   31.2336 C   0  0  0  0  0  0  0  0  0  0  0  0
   -0.4214   -5.4832   30.3735 C   0  0  0  0  0  0  0  0  0  0  0  0
   -0.1959   -4.2687   30.8953 C   0  0  0  0  0  0  0  0  0  0  0  0
    0.1801   -4.0748   32.3082 C   0  0  0  0  0  0  0  0  0  0  0  0
    0.8811   -2.8112   32.6784 C   0  0  0  0  0  0  0  0  0  0  0  0
    0.8314   -2.2513   33.9500 C   0  0  0  0  0  0  0  0  0  0  0  0
    1.6159   -1.2116   34.3231 N   0  0  0  0  0  0  0  0  0  0  0  0
    2.4503   -0.7398   33.3706 C   0  0  0  0  0  0  0  0  0  0  0  0
    2.4751   -1.2568   32.0902 C   0  0  0  0  0  0  0  0  0  0  0  0
    1.6828   -2.2855   31.7112 N   0  0  0  0  0  0  0  0  0  0  0  0
    0.2334   -5.2158   33.0711 C   0  0  0  0  0  0  0  0  0  0  0  0
    1.6166   -5.4722   34.1768 S   0  0  0  0  0  0  0  0  0  0  0  0
    2.7814   -5.1829   32.8685 C   0  0  0  0  0  0  0  0  0  0  0  0
    3.8023   -4.3527   32.8944 N   0  0  0  0  0  0  0  0  0  0  0  0
    4.1068   -4.0670   31.5573 N   0  0  0  0  0  0  0  0  0  0  0  0
    3.2527   -4.7495   30.8151 C   0  0  0  0  0  0  0  0  0  0  0  0
    3.2119   -4.7933   29.3911 C   0  0  0  0  0  0  0  0  0  0  0  0
    2.8528   -5.8360   28.5653 C   0  0  0  0  0  0  0  0  0  0  0  0
    3.1896   -5.4814   27.2420 C   0  0  0  0  0  0  0  0  0  0  0  0
    3.5984   -4.1722   27.2755 C   0  0  0  0  0  0  0  0  0  0  0  0
    3.5849   -3.7526   28.5835 N   0  0  0  0  0  0  0  0  0  0  0  0
    2.4825   -5.5767   31.5872 O   0  0  0  0  0  0  0  0  0  0  0  0
   -0.3783   -6.3905   32.5800 N   0  0  0  0  0  0  0  0  0  0  0  0
   -1.1841   -8.6975   34.8051 H   0  0  0  0  0  0  0  0  0  0  0  0
   -0.3611   -7.2586   35.1717 H   0  0  0  0  0  0  0  0  0  0  0  0
   -0.5794   -5.5950   29.3103 H   0  0  0  0  0  0  0  0  0  0  0  0
   -0.1192   -3.4081   30.2306 H   0  0  0  0  0  0  0  0  0  0  0  0
    0.1796   -2.6378   34.7266 H   0  0  0  0  0  0  0  0  0  0  0  0
    3.0947    0.0805   33.6656 H   0  0  0  0  0  0  0  0  0  0  0  0
    3.1403   -0.8583   31.3337 H   0  0  0  0  0  0  0  0  0  0  0  0
    2.4614   -6.7824   28.8858 H   0  0  0  0  0  0  0  0  0  0  0  0
    3.1375   -6.0951   26.3533 H   0  0  0  0  0  0  0  0  0  0  0  0
    3.9389   -3.5045   26.4944 H   0  0  0  0  0  0  0  0  0  0  0  0
    3.8826   -2.8423   28.9149 H   0  0  0  0  0  0  0  0  0  0  0  0
  1  2  1  0
  2  3  2  0
  3  4  1  0
  4  5  2  0
  5  6  1  0
  6  7  2  0
  7  8  1  0
  8  9  1  0
  9 10  2  0
 10 11  1  0
 11 12  2  0
 12 13  1  0
 13 14  2  0
  8 15  2  0
 15 16  1  0
 16 17  1  0
 17 18  2  0
 18 19  1  0
 19 20  2  0
 20 21  1  0
 21 22  2  0
 22 23  1  0
 23 24  2  0
 24 25  1  0
 20 26  1  0
 15 27  1  0
 27  2  1  0
 27  5  1  0
 14  9  1  0
 26 17  1  0
 25 21  1  0
  1 28  1  0
  1 29  1  0
  6 30  1  0
  7 31  1  0
 10 32  1  0
 12 33  1  0
 13 34  1  0
 22 35  1  0
 23 36  1  0
 24 37  1  0
 25 38  1  0
M  END
>  <Energy>  (948) 
136.71555170685593

>  <compound_id>  (948) 
4429

>  <target_id>  (948) 
1

>  <reference_id>  (948) 
157

>  <inspiration_ids>  (948) 
[157, 40]

>  <energy_score>  (948) 
-42.098117523435576

>  <distance_score>  (948) 
1.536134876487428

>  <path>  (948) 
/opt/xchem-fragalysis-2/maxwin/BulkDock/SCRATCH/505735/C4429-P157/C4429-P157.minimised.mol

>  <scratch_subdir>  (948) 
/opt/xchem-fragalysis-2/maxwin/BulkDock/SCRATCH/505735/C4429-P157

>  <fragmenstein_runtime>  (948) 
2.392263650894165

>  <fragmenstein_outcome>  (948) 
too moved

>  <fragmenstein_mode>  (948) 
expansion

>  <fragmenstein_error>  (948) 


$$$$
C4429-P40
     RDKit          3D

 38 42  0  0  0  0  0  0  0  0999 V2000
   -0.9442   -7.6758   34.4890 N   0  0  0  0  0  0  0  0  0  0  0  0
   -0.8680   -7.4446   33.1606 C   0  0  0  0  0  0  0  0  0  0  0  0
   -1.2511   -8.2658   32.2025 N   0  0  0  0  0  0  0  0  0  0  0  0
   -1.1380   -7.6242   30.9967 N   0  0  0  0  0  0  0  0  0  0  0  0
   -0.7296   -6.4034   31.2518 C   0  0  0  0  0  0  0  0  0  0  0  0
   -0.5521   -5.2738   30.4279 C   0  0  0  0  0  0  0  0  0  0  0  0
   -0.3823   -4.0651   30.9809 C   0  0  0  0  0  0  0  0  0  0  0  0
    0.0115   -3.8973   32.3910 C   0  0  0  0  0  0  0  0  0  0  0  0
    0.7429   -2.6472   32.7535 C   0  0  0  0  0  0  0  0  0  0  0  0
    0.7475   -2.0995   34.0300 C   0  0  0  0  0  0  0  0  0  0  0  0
    1.5890   -1.1016   34.3929 N   0  0  0  0  0  0  0  0  0  0  0  0
    2.4237   -0.6596   33.4250 C   0  0  0  0  0  0  0  0  0  0  0  0
    2.3951   -1.1631   32.1398 C   0  0  0  0  0  0  0  0  0  0  0  0
    1.5454   -2.1487   31.7727 N   0  0  0  0  0  0  0  0  0  0  0  0
    0.1077   -5.0563   33.1241 C   0  0  0  0  0  0  0  0  0  0  0  0
    1.5523   -5.2960   34.1595 S   0  0  0  0  0  0  0  0  0  0  0  0
    2.6185   -5.0138   32.7700 C   0  0  0  0  0  0  0  0  0  0  0  0
    3.6464   -4.1957   32.6886 N   0  0  0  0  0  0  0  0  0  0  0  0
    3.8875   -4.0081   31.3154 N   0  0  0  0  0  0  0  0  0  0  0  0
    2.9941   -4.7345   30.6662 C   0  0  0  0  0  0  0  0  0  0  0  0
    2.8750   -4.8973   29.2547 C   0  0  0  0  0  0  0  0  0  0  0  0
    2.3101   -5.9338   28.5322 C   0  0  0  0  0  0  0  0  0  0  0  0
    2.6739   -5.7443   27.1811 C   0  0  0  0  0  0  0  0  0  0  0  0
    3.2975   -4.5242   27.0919 C   0  0  0  0  0  0  0  0  0  0  0  0
    3.3879   -4.0010   28.3554 N   0  0  0  0  0  0  0  0  0  0  0  0
    2.2430   -5.4733   31.5319 O   0  0  0  0  0  0  0  0  0  0  0  0
   -0.4630   -6.2423   32.6018 N   0  0  0  0  0  0  0  0  0  0  0  0
   -1.1093   -8.6691   34.7161 H   0  0  0  0  0  0  0  0  0  0  0  0
   -0.2801   -7.2423   35.1222 H   0  0  0  0  0  0  0  0  0  0  0  0
   -0.6543   -5.3554   29.3585 H   0  0  0  0  0  0  0  0  0  0  0  0
   -0.3230   -3.1874   30.3359 H   0  0  0  0  0  0  0  0  0  0  0  0
    0.1018   -2.4690   34.8196 H   0  0  0  0  0  0  0  0  0  0  0  0
    3.1134    0.1257   33.7128 H   0  0  0  0  0  0  0  0  0  0  0  0
    3.0620   -0.7927   31.3705 H   0  0  0  0  0  0  0  0  0  0  0  0
    1.7964   -6.7870   28.9485 H   0  0  0  0  0  0  0  0  0  0  0  0
    2.5431   -6.4106   26.3422 H   0  0  0  0  0  0  0  0  0  0  0  0
    3.7342   -4.0014   26.2503 H   0  0  0  0  0  0  0  0  0  0  0  0
    3.8544   -3.1364   28.6049 H   0  0  0  0  0  0  0  0  0  0  0  0
  1  2  1  0
  2  3  2  0
  3  4  1  0
  4  5  2  0
  5  6  1  0
  6  7  2  0
  7  8  1  0
  8  9  1  0
  9 10  2  0
 10 11  1  0
 11 12  2  0
 12 13  1  0
 13 14  2  0
  8 15  2  0
 15 16  1  0
 16 17  1  0
 17 18  2  0
 18 19  1  0
 19 20  2  0
 20 21  1  0
 21 22  2  0
 22 23  1  0
 23 24  2  0
 24 25  1  0
 20 26  1  0
 15 27  1  0
 27  2  1  0
 27  5  1  0
 14  9  1  0
 26 17  1  0
 25 21  1  0
  1 28  1  0
  1 29  1  0
  6 30  1  0
  7 31  1  0
 10 32  1  0
 12 33  1  0
 13 34  1  0
 22 35  1  0
 23 36  1  0
 24 37  1  0
 25 38  1  0
M  END
>  <Energy>  (949) 
140.15341889977415

>  <compound_id>  (949) 
4429

>  <target_id>  (949) 
1

>  <reference_id>  (949) 
40

>  <inspiration_ids>  (949) 
[157, 40]

>  <energy_score>  (949) 
-38.66025033051551

>  <distance_score>  (949) 
1.437289926955656

>  <path>  (949) 
/opt/xchem-fragalysis-2/maxwin/BulkDock/SCRATCH/505735/C4429-P40/C4429-P40.minimised.mol

>  <scratch_subdir>  (949) 
/opt/xchem-fragalysis-2/maxwin/BulkDock/SCRATCH/505735/C4429-P40

>  <fragmenstein_runtime>  (949) 
1.6989002227783203

>  <fragmenstein_outcome>  (949) 
too moved

>  <fragmenstein_mode>  (949) 
expansion

>  <fragmenstein_error>  (949) 


$$$$
C4429-P157
     RDKit          3D

 38 42  0  0  0  0  0  0  0  0999 V2000
   -0.8387   -8.6726   32.2064 N   0  0  0  0  0  0  0  0  0  0  0  0
   -0.5716   -7.7257   31.3002 C   0  0  0  0  0  0  0  0  0  0  0  0
   -0.9811   -7.8351   30.0692 N   0  0  0  0  0  0  0  0  0  0  0  0
   -0.7567   -6.6569   29.4739 N   0  0  0  0  0  0  0  0  0  0  0  0
   -0.1212   -5.8686   30.3000 C   0  0  0  0  0  0  0  0  0  0  0  0
    0.3347   -4.5496   30.1169 C   0  0  0  0  0  0  0  0  0  0  0  0
    0.9888   -3.9489   31.1152 C   0  0  0  0  0  0  0  0  0  0  0  0
    1.2540   -4.6177   32.3941 C   0  0  0  0  0  0  0  0  0  0  0  0
    2.0430   -3.8631   33.3860 C   0  0  0  0  0  0  0  0  0  0  0  0
    1.4582   -3.2537   34.4922 C   0  0  0  0  0  0  0  0  0  0  0  0
    2.1538   -2.4497   35.3322 N   0  0  0  0  0  0  0  0  0  0  0  0
    3.4548   -2.2669   35.0126 C   0  0  0  0  0  0  0  0  0  0  0  0
    4.0386   -2.8640   33.9084 C   0  0  0  0  0  0  0  0  0  0  0  0
    3.3494   -3.6706   33.0700 N   0  0  0  0  0  0  0  0  0  0  0  0
    0.7827   -5.8852   32.5900 C   0  0  0  0  0  0  0  0  0  0  0  0
    1.1591   -6.7510   34.0685 S   0  0  0  0  0  0  0  0  0  0  0  0
   -0.4333   -7.2730   34.4902 C   0  0  0  0  0  0  0  0  0  0  0  0
   -1.5344   -6.7707   33.9857 N   0  0  0  0  0  0  0  0  0  0  0  0
   -2.5508   -7.5786   34.4168 N   0  0  0  0  0  0  0  0  0  0  0  0
   -2.1005   -8.3925   35.3232 C   0  0  0  0  0  0  0  0  0  0  0  0
   -2.7644   -8.4649   36.5907 C   0  0  0  0  0  0  0  0  0  0  0  0
   -1.8349   -7.0259   37.3395 C   0  0  0  0  0  0  0  0  0  0  0  0
   -2.6485   -6.3574   38.9627 C   0  0  0  0  0  0  0  0  0  0  0  0
   -4.4679   -7.3378   39.1475 C   0  0  0  0  0  0  0  0  0  0  0  0
   -4.5879   -8.4765   37.3601 N   0  0  0  0  0  0  0  0  0  0  0  0
   -0.6929   -8.3248   35.3178 O   0  0  0  0  0  0  0  0  0  0  0  0
    0.0696   -6.5026   31.5204 N   0  0  0  0  0  0  0  0  0  0  0  0
   -1.6812   -8.4517   32.7524 H   0  0  0  0  0  0  0  0  0  0  0  0
   -1.0867   -9.5527   31.7527 H   0  0  0  0  0  0  0  0  0  0  0  0
    0.1384   -4.0488   29.1736 H   0  0  0  0  0  0  0  0  0  0  0  0
    1.3524   -2.9310   30.9868 H   0  0  0  0  0  0  0  0  0  0  0  0
    0.4045   -3.3729   34.7241 H   0  0  0  0  0  0  0  0  0  0  0  0
    4.0212   -1.6222   35.6753 H   0  0  0  0  0  0  0  0  0  0  0  0
    5.0835   -2.7058   33.6666 H   0  0  0  0  0  0  0  0  0  0  0  0
   -0.8462   -6.6820   37.0599 H   0  0  0  0  0  0  0  0  0  0  0  0
   -2.2115   -5.6300   39.6612 H   0  0  0  0  0  0  0  0  0  0  0  0
   -5.3911   -7.0817   39.7434 H   0  0  0  0  0  0  0  0  0  0  0  0
   -5.3254   -8.1553   36.7558 H   0  0  0  0  0  0  0  0  0  0  0  0
  1  2  1  0
  2  3  2  0
  3  4  1  0
  4  5  2  0
  5  6  1  0
  6  7  2  0
  7  8  1  0
  8  9  1  0
  9 10  2  0
 10 11  1  0
 11 12  2  0
 12 13  1  0
 13 14  2  0
  8 15  2  0
 15 16  1  0
 16 17  1  0
 17 18  2  0
 18 19  1  0
 19 20  2  0
 20 21  1  0
 21 22  2  0
 22 23  1  0
 23 24  2  0
 24 25  1  0
 20 26  1  0
 15 27  1  0
 27  2  1  0
 27  5  1  0
 14  9  1  0
 26 17  1  0
 25 21  1  0
  1 28  1  0
  1 29  1  0
  6 30  1  0
  7 31  1  0
 10 32  1  0
 12 33  1  0
 13 34  1  0
 22 35  1  0
 23 36  1  0
 24 37  1  0
 25 38  1  0
M  END
>  <Energy>  (950) 
792.96026791502504

>  <compound_id>  (950) 
4429

>  <target_id>  (950) 
1

>  <reference_id>  (950) 
157

>  <inspiration_ids>  (950) 
[157, 41]

>  <energy_score>  (950) 
615.1072906515985

>  <distance_score>  (950) 
1.8620727566695223

>  <path>  (950) 
/opt/xchem-fragalysis-2/maxwin/BulkDock/SCRATCH/505735/C4429-P157/C4429-P157.minimised.mol

>  <scratch_subdir>  (950) 
/opt/xchem-fragalysis-2/maxwin/BulkDock/SCRATCH/505735/C4429-P157

>  <fragmenstein_runtime>  (950) 
3.9629931449890137

>  <fragmenstein_outcome>  (950) 
too moved

>  <fragmenstein_mode>  (950) 
expansion

>  <fragmenstein_error>  (950) 


$$$$
C4429-P41
     RDKit          3D

 38 42  0  0  0  0  0  0  0  0999 V2000
   -0.5839   -7.6079   34.7563 N   0  0  0  0  0  0  0  0  0  0  0  0
   -0.3984   -6.9326   33.6046 C   0  0  0  0  0  0  0  0  0  0  0  0
   -0.6431   -7.4304   32.4170 N   0  0  0  0  0  0  0  0  0  0  0  0
   -0.6588   -6.4027   31.5262 N   0  0  0  0  0  0  0  0  0  0  0  0
   -0.3889   -5.3000   32.1874 C   0  0  0  0  0  0  0  0  0  0  0  0
   -0.3058   -3.9678   31.7410 C   0  0  0  0  0  0  0  0  0  0  0  0
    0.1119   -3.0289   32.5985 C   0  0  0  0  0  0  0  0  0  0  0  0
    0.5356   -3.3366   33.9754 C   0  0  0  0  0  0  0  0  0  0  0  0
    1.3600   -2.3250   34.6548 C   0  0  0  0  0  0  0  0  0  0  0  0
    0.8735   -1.4787   35.6401 C   0  0  0  0  0  0  0  0  0  0  0  0
    1.6300   -0.4936   36.1821 N   0  0  0  0  0  0  0  0  0  0  0  0
    2.8852   -0.3823   35.6896 C   0  0  0  0  0  0  0  0  0  0  0  0
    3.3711   -1.2184   34.7014 C   0  0  0  0  0  0  0  0  0  0  0  0
    2.6225   -2.2038   34.1619 N   0  0  0  0  0  0  0  0  0  0  0  0
    0.3198   -4.5875   34.4809 C   0  0  0  0  0  0  0  0  0  0  0  0
    1.0003   -5.0884   36.0378 S   0  0  0  0  0  0  0  0  0  0  0  0
   -0.2050   -4.7446   37.2728 C   0  0  0  0  0  0  0  0  0  0  0  0
   -1.1619   -3.8430   37.2666 N   0  0  0  0  0  0  0  0  0  0  0  0
   -1.9878   -4.1259   38.3721 N   0  0  0  0  0  0  0  0  0  0  0  0
   -1.6026   -5.2987   38.8698 C   0  0  0  0  0  0  0  0  0  0  0  0
   -2.4899   -6.4838   38.7601 C   0  0  0  0  0  0  0  0  0  0  0  0
   -4.3384   -7.3431   39.1904 C   0  0  0  0  0  0  0  0  0  0  0  0
   -4.6638   -8.4873   37.3073 C   0  0  0  0  0  0  0  0  0  0  0  0
   -2.9909   -8.7974   36.5524 C   0  0  0  0  0  0  0  0  0  0  0  0
   -1.8607   -7.3953   37.1950 N   0  0  0  0  0  0  0  0  0  0  0  0
   -0.2898   -5.5345   38.4145 O   0  0  0  0  0  0  0  0  0  0  0  0
   -0.1439   -5.5682   33.5404 N   0  0  0  0  0  0  0  0  0  0  0  0
   -1.5727   -7.4872   34.9618 H   0  0  0  0  0  0  0  0  0  0  0  0
   -0.5800   -8.6259   34.5900 H   0  0  0  0  0  0  0  0  0  0  0  0
   -0.5669   -3.7290   30.7147 H   0  0  0  0  0  0  0  0  0  0  0  0
    0.2024   -1.9967   32.2640 H   0  0  0  0  0  0  0  0  0  0  0  0
   -0.1424   -1.5510   36.0144 H   0  0  0  0  0  0  0  0  0  0  0  0
    3.4944    0.4062   36.1169 H   0  0  0  0  0  0  0  0  0  0  0  0
    4.3788   -1.1160   34.3156 H   0  0  0  0  0  0  0  0  0  0  0  0
   -5.0599   -7.0939   40.0323 H   0  0  0  0  0  0  0  0  0  0  0  0
   -5.5186   -8.9473   36.8459 H   0  0  0  0  0  0  0  0  0  0  0  0
   -2.7576   -9.0376   35.5326 H   0  0  0  0  0  0  0  0  0  0  0  0
   -0.8780   -7.3741   36.9503 H   0  0  0  0  0  0  0  0  0  0  0  0
  1  2  1  0
  2  3  2  0
  3  4  1  0
  4  5  2  0
  5  6  1  0
  6  7  2  0
  7  8  1  0
  8  9  1  0
  9 10  2  0
 10 11  1  0
 11 12  2  0
 12 13  1  0
 13 14  2  0
  8 15  2  0
 15 16  1  0
 16 17  1  0
 17 18  2  0
 18 19  1  0
 19 20  2  0
 20 21  1  0
 21 22  2  0
 22 23  1  0
 23 24  2  0
 24 25  1  0
 20 26  1  0
 15 27  1  0
 27  2  1  0
 27  5  1  0
 14  9  1  0
 26 17  1  0
 25 21  1  0
  1 28  1  0
  1 29  1  0
  6 30  1  0
  7 31  1  0
 10 32  1  0
 12 33  1  0
 13 34  1  0
 22 35  1  0
 23 36  1  0
 24 37  1  0
 25 38  1  0
M  END
>  <Energy>  (951) 
793.03724280732001

>  <compound_id>  (951) 
4429

>  <target_id>  (951) 
1

>  <reference_id>  (951) 
41

>  <inspiration_ids>  (951) 
[157, 41]

>  <energy_score>  (951) 
615.1842655438886

>  <distance_score>  (951) 
2.378848227850089

>  <path>  (951) 
/opt/xchem-fragalysis-2/maxwin/BulkDock/SCRATCH/505735/C4429-P41/C4429-P41.minimised.mol

>  <scratch_subdir>  (951) 
/opt/xchem-fragalysis-2/maxwin/BulkDock/SCRATCH/505735/C4429-P41

>  <fragmenstein_runtime>  (951) 
3.0541164875030518

>  <fragmenstein_outcome>  (951) 
too moved

>  <fragmenstein_mode>  (951) 
expansion

>  <fragmenstein_error>  (951) 


$$$$
C4430-P157
     RDKit          3D

 42 46  0  0  0  0  0  0  0  0999 V2000
   -1.4031   -6.2410   34.3735 N   0  0  0  0  0  0  0  0  0  0  0  0
   -1.3142   -6.6208   33.0804 C   0  0  0  0  0  0  0  0  0  0  0  0
   -1.6007   -7.8130   32.5991 N   0  0  0  0  0  0  0  0  0  0  0  0
   -0.9974   -7.9387   31.3770 N   0  0  0  0  0  0  0  0  0  0  0  0
   -0.3030   -6.8414   31.1971 C   0  0  0  0  0  0  0  0  0  0  0  0
    0.7624   -6.5252   30.3418 C   0  0  0  0  0  0  0  0  0  0  0  0
    1.4399   -5.3808   30.5156 C   0  0  0  0  0  0  0  0  0  0  0  0
    0.9827   -4.3520   31.4499 C   0  0  0  0  0  0  0  0  0  0  0  0
    1.8254   -3.1880   31.8041 C   0  0  0  0  0  0  0  0  0  0  0  0
    1.9132   -2.7178   33.1208 C   0  0  0  0  0  0  0  0  0  0  0  0
    2.7259   -1.7031   33.4959 N   0  0  0  0  0  0  0  0  0  0  0  0
    3.4527   -1.1628   32.4974 C   0  0  0  0  0  0  0  0  0  0  0  0
    3.3922   -1.6371   31.1960 C   0  0  0  0  0  0  0  0  0  0  0  0
    2.5958   -2.6682   30.8211 N   0  0  0  0  0  0  0  0  0  0  0  0
   -0.2506   -4.5127   32.0062 C   0  0  0  0  0  0  0  0  0  0  0  0
   -1.1017   -3.4465   32.3558 N   0  0  0  0  0  0  0  0  0  0  0  0
   -1.1073   -2.1800   31.8072 C   0  0  0  0  0  0  0  0  0  0  0  0
   -1.2554   -1.0442   32.4500 N   0  0  0  0  0  0  0  0  0  0  0  0
   -1.0825   -0.0100   31.5541 N   0  0  0  0  0  0  0  0  0  0  0  0
   -0.9549   -0.4981   30.3349 C   0  0  0  0  0  0  0  0  0  0  0  0
   -0.9009    0.3347   29.1159 C   0  0  0  0  0  0  0  0  0  0  0  0
   -0.3087    1.6128   29.1755 C   0  0  0  0  0  0  0  0  0  0  0  0
   -0.4660    2.5517   28.1443 C   0  0  0  0  0  0  0  0  0  0  0  0
   -1.2070    2.2206   27.0181 C   0  0  0  0  0  0  0  0  0  0  0  0
   -1.7438    0.9395   26.9149 C   0  0  0  0  0  0  0  0  0  0  0  0
   -1.5694   -0.0079   27.9393 C   0  0  0  0  0  0  0  0  0  0  0  0
   -0.9664   -1.8781   30.4538 N   0  0  0  0  0  0  0  0  0  0  0  0
   -0.7057   -5.8610   32.0877 N   0  0  0  0  0  0  0  0  0  0  0  0
   -1.8535   -5.3508   34.5866 H   0  0  0  0  0  0  0  0  0  0  0  0
   -1.7581   -6.9770   34.9846 H   0  0  0  0  0  0  0  0  0  0  0  0
    1.0698   -7.2750   29.6371 H   0  0  0  0  0  0  0  0  0  0  0  0
    2.3088   -5.1530   29.9023 H   0  0  0  0  0  0  0  0  0  0  0  0
    1.3359   -3.1537   33.9290 H   0  0  0  0  0  0  0  0  0  0  0  0
    4.0954   -0.3331   32.7695 H   0  0  0  0  0  0  0  0  0  0  0  0
    3.9906   -1.1905   30.4092 H   0  0  0  0  0  0  0  0  0  0  0  0
   -1.4481   -3.5003   33.3159 H   0  0  0  0  0  0  0  0  0  0  0  0
    0.2252    1.9158   30.0758 H   0  0  0  0  0  0  0  0  0  0  0  0
   -0.0446    3.5485   28.2483 H   0  0  0  0  0  0  0  0  0  0  0  0
   -1.3732    2.9521   26.2319 H   0  0  0  0  0  0  0  0  0  0  0  0
   -2.3255    0.6664   26.0387 H   0  0  0  0  0  0  0  0  0  0  0  0
   -2.0377   -0.9829   27.8188 H   0  0  0  0  0  0  0  0  0  0  0  0
   -0.8683   -2.5381   29.6980 H   0  0  0  0  0  0  0  0  0  0  0  0
  1  2  1  0
  2  3  2  0
  3  4  1  0
  4  5  2  0
  5  6  1  0
  6  7  2  0
  7  8  1  0
  8  9  1  0
  9 10  2  0
 10 11  1  0
 11 12  2  0
 12 13  1  0
 13 14  2  0
  8 15  2  0
 15 16  1  0
 16 17  1  0
 17 18  2  0
 18 19  1  0
 19 20  2  0
 20 21  1  0
 21 22  2  0
 22 23  1  0
 23 24  2  0
 24 25  1  0
 25 26  2  0
 20 27  1  0
 15 28  1  0
 28  2  1  0
 28  5  1  0
 14  9  1  0
 27 17  1  0
 26 21  1  0
  1 29  1  0
  1 30  1  0
  6 31  1  0
  7 32  1  0
 10 33  1  0
 12 34  1  0
 13 35  1  0
 16 36  1  0
 22 37  1  0
 23 38  1  0
 24 39  1  0
 25 40  1  0
 26 41  1  0
 27 42  1  0
M  END
>  <Energy>  (952) 
155.55578880381825

>  <compound_id>  (952) 
4430

>  <target_id>  (952) 
1

>  <reference_id>  (952) 
157

>  <inspiration_ids>  (952) 
[157, 44]

>  <energy_score>  (952) 
-34.70243115992861

>  <distance_score>  (952) 
1.314271119627791

>  <path>  (952) 
/opt/xchem-fragalysis-2/maxwin/BulkDock/SCRATCH/505735/C4430-P157/C4430-P157.minimised.mol

>  <scratch_subdir>  (952) 
/opt/xchem-fragalysis-2/maxwin/BulkDock/SCRATCH/505735/C4430-P157

>  <fragmenstein_runtime>  (952) 
6.682924032211304

>  <fragmenstein_outcome>  (952) 
too moved

>  <fragmenstein_mode>  (952) 
expansion

>  <fragmenstein_error>  (952) 


$$$$
C4430-P44
     RDKit          3D

 42 46  0  0  0  0  0  0  0  0999 V2000
   -1.4957   -6.6116   34.2176 N   0  0  0  0  0  0  0  0  0  0  0  0
   -1.3274   -6.8910   32.9058 C   0  0  0  0  0  0  0  0  0  0  0  0
   -1.6381   -8.0282   32.3187 N   0  0  0  0  0  0  0  0  0  0  0  0
   -0.9134   -8.1153   31.1616 N   0  0  0  0  0  0  0  0  0  0  0  0
   -0.1715   -7.0339   31.1040 C   0  0  0  0  0  0  0  0  0  0  0  0
    0.9729   -6.6969   30.3632 C   0  0  0  0  0  0  0  0  0  0  0  0
    1.5939   -5.5307   30.5958 C   0  0  0  0  0  0  0  0  0  0  0  0
    1.0263   -4.5065   31.4794 C   0  0  0  0  0  0  0  0  0  0  0  0
    1.7999   -3.2924   31.8359 C   0  0  0  0  0  0  0  0  0  0  0  0
    1.8155   -2.7801   33.1388 C   0  0  0  0  0  0  0  0  0  0  0  0
    2.5863   -1.7345   33.5200 N   0  0  0  0  0  0  0  0  0  0  0  0
    3.3392   -1.1986   32.5385 C   0  0  0  0  0  0  0  0  0  0  0  0
    3.3461   -1.7079   31.2496 C   0  0  0  0  0  0  0  0  0  0  0  0
    2.5977   -2.7738   30.8731 N   0  0  0  0  0  0  0  0  0  0  0  0
   -0.2260   -4.7234   31.9756 C   0  0  0  0  0  0  0  0  0  0  0  0
   -1.1369   -3.6991   32.3082 N   0  0  0  0  0  0  0  0  0  0  0  0
   -1.1719   -2.4196   31.7868 C   0  0  0  0  0  0  0  0  0  0  0  0
   -1.3478   -1.2992   32.4505 N   0  0  0  0  0  0  0  0  0  0  0  0
   -1.1908   -0.2415   31.5763 N   0  0  0  0  0  0  0  0  0  0  0  0
   -1.0540   -0.7021   30.3476 C   0  0  0  0  0  0  0  0  0  0  0  0
   -1.0098    0.1531   29.1430 C   0  0  0  0  0  0  0  0  0  0  0  0
   -0.3884    1.4176   29.2081 C   0  0  0  0  0  0  0  0  0  0  0  0
   -0.5244    2.3632   28.1790 C   0  0  0  0  0  0  0  0  0  0  0  0
   -1.2751    2.0538   27.0520 C   0  0  0  0  0  0  0  0  0  0  0  0
   -1.8515    0.7894   26.9484 C   0  0  0  0  0  0  0  0  0  0  0  0
   -1.7054   -0.1621   27.9727 C   0  0  0  0  0  0  0  0  0  0  0  0
   -1.0338   -2.0853   30.4394 N   0  0  0  0  0  0  0  0  0  0  0  0
   -0.6421   -6.0882   31.9996 N   0  0  0  0  0  0  0  0  0  0  0  0
   -0.8741   -5.9492   34.6705 H   0  0  0  0  0  0  0  0  0  0  0  0
   -1.6011   -7.4584   34.7803 H   0  0  0  0  0  0  0  0  0  0  0  0
    1.3640   -7.4316   29.6755 H   0  0  0  0  0  0  0  0  0  0  0  0
    2.5079   -5.2808   30.0612 H   0  0  0  0  0  0  0  0  0  0  0  0
    1.2120   -3.2048   33.9330 H   0  0  0  0  0  0  0  0  0  0  0  0
    3.9453   -0.3430   32.8142 H   0  0  0  0  0  0  0  0  0  0  0  0
    3.9624   -1.2642   30.4751 H   0  0  0  0  0  0  0  0  0  0  0  0
   -1.5761   -3.8131   33.2287 H   0  0  0  0  0  0  0  0  0  0  0  0
    0.1563    1.7020   30.1075 H   0  0  0  0  0  0  0  0  0  0  0  0
   -0.0774    3.3488   28.2835 H   0  0  0  0  0  0  0  0  0  0  0  0
   -1.4202    2.7908   26.2669 H   0  0  0  0  0  0  0  0  0  0  0  0
   -2.4401    0.5316   26.0731 H   0  0  0  0  0  0  0  0  0  0  0  0
   -2.2047   -1.1223   27.8548 H   0  0  0  0  0  0  0  0  0  0  0  0
   -0.9280   -2.7273   29.6690 H   0  0  0  0  0  0  0  0  0  0  0  0
  1  2  1  0
  2  3  2  0
  3  4  1  0
  4  5  2  0
  5  6  1  0
  6  7  2  0
  7  8  1  0
  8  9  1  0
  9 10  2  0
 10 11  1  0
 11 12  2  0
 12 13  1  0
 13 14  2  0
  8 15  2  0
 15 16  1  0
 16 17  1  0
 17 18  2  0
 18 19  1  0
 19 20  2  0
 20 21  1  0
 21 22  2  0
 22 23  1  0
 23 24  2  0
 24 25  1  0
 25 26  2  0
 20 27  1  0
 15 28  1  0
 28  2  1  0
 28  5  1  0
 14  9  1  0
 27 17  1  0
 26 21  1  0
  1 29  1  0
  1 30  1  0
  6 31  1  0
  7 32  1  0
 10 33  1  0
 12 34  1  0
 13 35  1  0
 16 36  1  0
 22 37  1  0
 23 38  1  0
 24 39  1  0
 25 40  1  0
 26 41  1  0
 27 42  1  0
M  END
>  <Energy>  (953) 
152.56652034143625

>  <compound_id>  (953) 
4430

>  <target_id>  (953) 
1

>  <reference_id>  (953) 
44

>  <inspiration_ids>  (953) 
[157, 44]

>  <energy_score>  (953) 
-37.69169962231166

>  <distance_score>  (953) 
1.331149241698687

>  <path>  (953) 
/opt/xchem-fragalysis-2/maxwin/BulkDock/SCRATCH/505735/C4430-P44/C4430-P44.minimised.mol

>  <scratch_subdir>  (953) 
/opt/xchem-fragalysis-2/maxwin/BulkDock/SCRATCH/505735/C4430-P44

>  <fragmenstein_runtime>  (953) 
6.515144109725952

>  <fragmenstein_outcome>  (953) 
too moved

>  <fragmenstein_mode>  (953) 
expansion

>  <fragmenstein_error>  (953) 


$$$$
C4431-P157
     RDKit          3D

 51 55  0  0  0  0  0  0  0  0999 V2000
   -0.9620   -8.0534   34.4957 N   0  0  0  0  0  0  0  0  0  0  0  0
   -0.9324   -7.7529   33.1902 C   0  0  0  0  0  0  0  0  0  0  0  0
   -1.4294   -8.4375   32.1911 N   0  0  0  0  0  0  0  0  0  0  0  0
   -1.0955   -7.8034   31.0318 N   0  0  0  0  0  0  0  0  0  0  0  0
   -0.3725   -6.7551   31.3535 C   0  0  0  0  0  0  0  0  0  0  0  0
   -0.2741   -6.6511   32.7226 N   0  0  0  0  0  0  0  0  0  0  0  0
    0.4751   -5.6056   33.4675 C   0  0  0  0  0  0  0  0  0  0  0  0
    1.8690   -6.1244   33.8989 C   0  0  0  0  0  0  0  0  0  0  0  0
    1.9597   -7.1329   35.0314 C   0  0  0  0  0  0  0  0  0  0  0  0
    1.2787   -6.7705   36.3384 C   0  0  0  0  0  0  0  0  0  0  0  0
    0.5368   -5.4446   36.4114 C   0  0  0  0  0  0  0  0  0  0  0  0
    1.2903   -4.2497   36.9281 C   0  0  0  0  0  0  0  0  0  0  0  0
    0.5855   -3.3477   37.7474 C   0  0  0  0  0  0  0  0  0  0  0  0
    1.2218   -2.2518   38.3136 C   0  0  0  0  0  0  0  0  0  0  0  0
    2.5699   -2.0325   38.0602 C   0  0  0  0  0  0  0  0  0  0  0  0
    3.2796   -2.9092   37.2444 C   0  0  0  0  0  0  0  0  0  0  0  0
    2.6471   -4.0186   36.6867 C   0  0  0  0  0  0  0  0  0  0  0  0
   -0.4510   -5.0229   34.9907 S   0  0  0  0  0  0  0  0  0  0  0  0
   -0.6103   -3.5837   34.9135 O   0  0  0  0  0  0  0  0  0  0  0  0
   -1.6509   -5.8165   35.1982 O   0  0  0  0  0  0  0  0  0  0  0  0
    0.6537   -4.3734   32.4635 C   0  0  0  0  0  0  0  0  0  0  0  0
    1.6119   -3.2604   32.8679 C   0  0  0  0  0  0  0  0  0  0  0  0
    1.1601   -2.0167   33.2953 C   0  0  0  0  0  0  0  0  0  0  0  0
    1.9918   -0.9785   33.5477 N   0  0  0  0  0  0  0  0  0  0  0  0
    3.3012   -1.2101   33.3381 C   0  0  0  0  0  0  0  0  0  0  0  0
    3.7662   -2.4327   32.9017 C   0  0  0  0  0  0  0  0  0  0  0  0
    2.9421   -3.4799   32.6692 N   0  0  0  0  0  0  0  0  0  0  0  0
    1.1726   -4.8462   31.0781 C   0  0  0  0  0  0  0  0  0  0  0  0
    0.2444   -5.8190   30.4039 C   0  0  0  0  0  0  0  0  0  0  0  0
   -1.6021   -7.4522   35.0276 H   0  0  0  0  0  0  0  0  0  0  0  0
   -1.3099   -9.0093   34.6840 H   0  0  0  0  0  0  0  0  0  0  0  0
    2.3781   -6.5497   33.0309 H   0  0  0  0  0  0  0  0  0  0  0  0
    2.4901   -5.2862   34.2089 H   0  0  0  0  0  0  0  0  0  0  0  0
    1.5873   -8.1018   34.7068 H   0  0  0  0  0  0  0  0  0  0  0  0
    3.0242   -7.3088   35.2376 H   0  0  0  0  0  0  0  0  0  0  0  0
    0.5616   -7.5717   36.5631 H   0  0  0  0  0  0  0  0  0  0  0  0
    2.0085   -6.8395   37.1564 H   0  0  0  0  0  0  0  0  0  0  0  0
   -0.2235   -5.6335   37.1878 H   0  0  0  0  0  0  0  0  0  0  0  0
   -0.4756   -3.4899   37.9519 H   0  0  0  0  0  0  0  0  0  0  0  0
    0.6643   -1.5614   38.9410 H   0  0  0  0  0  0  0  0  0  0  0  0
    3.0683   -1.1697   38.4945 H   0  0  0  0  0  0  0  0  0  0  0  0
    4.3352   -2.7323   37.0554 H   0  0  0  0  0  0  0  0  0  0  0  0
    3.2526   -4.6982   36.0980 H   0  0  0  0  0  0  0  0  0  0  0  0
   -0.3366   -3.9241   32.2951 H   0  0  0  0  0  0  0  0  0  0  0  0
    0.1056   -1.7932   33.4264 H   0  0  0  0  0  0  0  0  0  0  0  0
    3.9691   -0.3790   33.5312 H   0  0  0  0  0  0  0  0  0  0  0  0
    4.8223   -2.6071   32.7325 H   0  0  0  0  0  0  0  0  0  0  0  0
    1.3257   -3.9904   30.4057 H   0  0  0  0  0  0  0  0  0  0  0  0
    2.1565   -5.3236   31.1759 H   0  0  0  0  0  0  0  0  0  0  0  0
    0.8202   -6.3860   29.6704 H   0  0  0  0  0  0  0  0  0  0  0  0
   -0.5241   -5.2651   29.8619 H   0  0  0  0  0  0  0  0  0  0  0  0
  1  2  1  0
  2  3  2  0
  3  4  1  0
  4  5  2  0
  5  6  1  0
  6  7  1  0
  7  8  1  0
  8  9  1  0
  9 10  1  0
 10 11  1  0
 11 12  1  0
 12 13  2  0
 13 14  1  0
 14 15  2  0
 15 16  1  0
 16 17  2  0
 11 18  1  0
 18 19  2  0
 18 20  2  0
  7 21  1  0
 21 22  1  0
 22 23  2  0
 23 24  1  0
 24 25  2  0
 25 26  1  0
 26 27  2  0
 21 28  1  0
 28 29  1  0
  6  2  1  0
 18  7  1  0
 27 22  1  0
 29  5  1  0
 17 12  1  0
  1 30  1  0
  1 31  1  0
  8 32  1  0
  8 33  1  0
  9 34  1  0
  9 35  1  0
 10 36  1  0
 10 37  1  0
 11 38  1  0
 13 39  1  0
 14 40  1  0
 15 41  1  0
 16 42  1  0
 17 43  1  0
 21 44  1  0
 23 45  1  0
 25 46  1  0
 26 47  1  0
 28 48  1  0
 28 49  1  0
 29 50  1  0
 29 51  1  0
M  END
>  <Energy>  (954) 
74.154933361550775

>  <compound_id>  (954) 
4431

>  <target_id>  (954) 
1

>  <reference_id>  (954) 
157

>  <inspiration_ids>  (954) 
[157, 56]

>  <energy_score>  (954) 
-81.97346889535234

>  <distance_score>  (954) 
1.1916246162823902

>  <path>  (954) 
/opt/xchem-fragalysis-2/maxwin/BulkDock/SCRATCH/505735/C4431-P157/C4431-P157.minimised.mol

>  <scratch_subdir>  (954) 
/opt/xchem-fragalysis-2/maxwin/BulkDock/SCRATCH/505735/C4431-P157

>  <fragmenstein_runtime>  (954) 
4.049660682678223

>  <fragmenstein_outcome>  (954) 
too moved

>  <fragmenstein_mode>  (954) 
expansion

>  <fragmenstein_error>  (954) 


$$$$
C4431-P56
     RDKit          3D

 51 55  0  0  0  0  0  0  0  0999 V2000
   -1.1186   -7.7467   34.6897 N   0  0  0  0  0  0  0  0  0  0  0  0
   -1.2797   -7.4342   33.3897 C   0  0  0  0  0  0  0  0  0  0  0  0
   -1.8650   -8.1938   32.4909 N   0  0  0  0  0  0  0  0  0  0  0  0
   -1.6011   -7.6788   31.2527 N   0  0  0  0  0  0  0  0  0  0  0  0
   -0.8460   -6.6204   31.4295 C   0  0  0  0  0  0  0  0  0  0  0  0
   -0.7724   -6.3059   32.7762 N   0  0  0  0  0  0  0  0  0  0  0  0
    0.1280   -5.1990   33.2678 C   0  0  0  0  0  0  0  0  0  0  0  0
    1.4849   -5.8831   33.3871 C   0  0  0  0  0  0  0  0  0  0  0  0
    2.7149   -5.3011   34.0511 C   0  0  0  0  0  0  0  0  0  0  0  0
    2.4404   -4.2509   35.0827 C   0  0  0  0  0  0  0  0  0  0  0  0
    1.2015   -4.5839   35.8834 C   0  0  0  0  0  0  0  0  0  0  0  0
    1.0651   -3.7385   37.1228 C   0  0  0  0  0  0  0  0  0  0  0  0
    0.2956   -4.2022   38.1989 C   0  0  0  0  0  0  0  0  0  0  0  0
    0.2427   -3.4817   39.3859 C   0  0  0  0  0  0  0  0  0  0  0  0
    0.9595   -2.2958   39.5121 C   0  0  0  0  0  0  0  0  0  0  0  0
    1.7033   -1.8097   38.4440 C   0  0  0  0  0  0  0  0  0  0  0  0
    1.7419   -2.5162   37.2509 C   0  0  0  0  0  0  0  0  0  0  0  0
   -0.3167   -4.5148   34.9582 S   0  0  0  0  0  0  0  0  0  0  0  0
   -0.6955   -3.1193   34.8228 O   0  0  0  0  0  0  0  0  0  0  0  0
   -1.2014   -5.4273   35.6735 O   0  0  0  0  0  0  0  0  0  0  0  0
    0.0695   -4.0079   32.2133 C   0  0  0  0  0  0  0  0  0  0  0  0
    1.2170   -3.0176   32.2657 C   0  0  0  0  0  0  0  0  0  0  0  0
    1.0862   -1.7752   32.8829 C   0  0  0  0  0  0  0  0  0  0  0  0
    2.1062   -0.8914   32.9832 N   0  0  0  0  0  0  0  0  0  0  0  0
    3.2558   -1.2558   32.3814 C   0  0  0  0  0  0  0  0  0  0  0  0
    3.3880   -2.4636   31.7257 C   0  0  0  0  0  0  0  0  0  0  0  0
    2.3847   -3.3732   31.6698 N   0  0  0  0  0  0  0  0  0  0  0  0
   -0.1430   -4.3900   30.7171 C   0  0  0  0  0  0  0  0  0  0  0  0
   -0.0854   -5.8709   30.4128 C   0  0  0  0  0  0  0  0  0  0  0  0
   -1.3223   -6.9910   35.3556 H   0  0  0  0  0  0  0  0  0  0  0  0
   -1.6151   -8.5928   34.9743 H   0  0  0  0  0  0  0  0  0  0  0  0
    1.2782   -6.7779   33.9867 H   0  0  0  0  0  0  0  0  0  0  0  0
    1.7926   -6.1847   32.3828 H   0  0  0  0  0  0  0  0  0  0  0  0
    3.2653   -6.1169   34.5402 H   0  0  0  0  0  0  0  0  0  0  0  0
    3.4227   -4.9208   33.3091 H   0  0  0  0  0  0  0  0  0  0  0  0
    3.3239   -4.1878   35.7305 H   0  0  0  0  0  0  0  0  0  0  0  0
    2.3547   -3.2738   34.6136 H   0  0  0  0  0  0  0  0  0  0  0  0
    1.2685   -5.6278   36.1939 H   0  0  0  0  0  0  0  0  0  0  0  0
   -0.2558   -5.1367   38.1320 H   0  0  0  0  0  0  0  0  0  0  0  0
   -0.3553   -3.8464   40.2167 H   0  0  0  0  0  0  0  0  0  0  0  0
    0.9201   -1.7367   40.4432 H   0  0  0  0  0  0  0  0  0  0  0  0
    2.2437   -0.8719   38.5393 H   0  0  0  0  0  0  0  0  0  0  0  0
    2.3275   -2.0887   36.4418 H   0  0  0  0  0  0  0  0  0  0  0  0
   -0.8427   -3.4388   32.4464 H   0  0  0  0  0  0  0  0  0  0  0  0
    0.1548   -1.4400   33.3289 H   0  0  0  0  0  0  0  0  0  0  0  0
    4.0699   -0.5422   32.4322 H   0  0  0  0  0  0  0  0  0  0  0  0
    4.3123   -2.7413   31.2324 H   0  0  0  0  0  0  0  0  0  0  0  0
   -1.1341   -4.0109   30.4367 H   0  0  0  0  0  0  0  0  0  0  0  0
    0.5386   -3.8644   30.0362 H   0  0  0  0  0  0  0  0  0  0  0  0
    0.9554   -6.1983   30.4049 H   0  0  0  0  0  0  0  0  0  0  0  0
   -0.4806   -6.0689   29.4107 H   0  0  0  0  0  0  0  0  0  0  0  0
  1  2  1  0
  2  3  2  0
  3  4  1  0
  4  5  2  0
  5  6  1  0
  6  7  1  0
  7  8  1  0
  8  9  1  0
  9 10  1  0
 10 11  1  0
 11 12  1  0
 12 13  2  0
 13 14  1  0
 14 15  2  0
 15 16  1  0
 16 17  2  0
 11 18  1  0
 18 19  2  0
 18 20  2  0
  7 21  1  0
 21 22  1  0
 22 23  2  0
 23 24  1  0
 24 25  2  0
 25 26  1  0
 26 27  2  0
 21 28  1  0
 28 29  1  0
  6  2  1  0
 18  7  1  0
 27 22  1  0
 29  5  1  0
 17 12  1  0
  1 30  1  0
  1 31  1  0
  8 32  1  0
  8 33  1  0
  9 34  1  0
  9 35  1  0
 10 36  1  0
 10 37  1  0
 11 38  1  0
 13 39  1  0
 14 40  1  0
 15 41  1  0
 16 42  1  0
 17 43  1  0
 21 44  1  0
 23 45  1  0
 25 46  1  0
 26 47  1  0
 28 48  1  0
 28 49  1  0
 29 50  1  0
 29 51  1  0
M  END
>  <Energy>  (955) 
79.256110452885679

>  <compound_id>  (955) 
4431

>  <target_id>  (955) 
1

>  <reference_id>  (955) 
56

>  <inspiration_ids>  (955) 
[157, 56]

>  <energy_score>  (955) 
-76.87229180401656

>  <distance_score>  (955) 
1.4172064753843125

>  <path>  (955) 
/opt/xchem-fragalysis-2/maxwin/BulkDock/SCRATCH/505735/C4431-P56/C4431-P56.minimised.mol

>  <scratch_subdir>  (955) 
/opt/xchem-fragalysis-2/maxwin/BulkDock/SCRATCH/505735/C4431-P56

>  <fragmenstein_runtime>  (955) 
4.834345579147339

>  <fragmenstein_outcome>  (955) 
too moved

>  <fragmenstein_mode>  (955) 
expansion

>  <fragmenstein_error>  (955) 


$$$$
C4458-P157
     RDKit          3D

 64 69  0  0  0  0  0  0  0  0999 V2000
    4.1454    3.1285   30.6540 N   0  0  0  0  0  0  0  0  0  0  0  0
    4.7567    2.4950   31.8222 C   0  0  0  0  0  0  0  0  0  0  0  0
    5.5504    1.3182   31.4048 C   0  0  0  0  0  0  0  0  0  0  0  0
    6.8870    1.3623   31.7056 O   0  0  0  0  0  0  0  0  0  0  0  0
    7.3669    0.1704   31.2710 C   0  0  0  0  0  0  0  0  0  0  0  0
    6.4727   -0.6247   30.7402 N   0  0  0  0  0  0  0  0  0  0  0  0
    5.2875    0.1068   30.7807 C   0  0  0  0  0  0  0  0  0  0  0  0
    4.0172   -0.4336   30.2718 C   0  0  0  0  0  0  0  0  0  0  0  0
    3.9353   -1.6424   30.1644 N   0  0  0  0  0  0  0  0  0  0  0  0
    2.6854   -2.2620   29.7403 C   0  0  0  0  0  0  0  0  0  0  0  0
    2.7959   -3.7892   29.7089 C   0  0  0  0  0  0  0  0  0  0  0  0
    1.4656   -4.3841   29.8003 N   0  0  0  0  0  0  0  0  0  0  0  0
    0.9112   -5.1616   30.8094 C   0  0  0  0  0  0  0  0  0  0  0  0
    0.0152   -6.1076   30.4557 C   0  0  0  0  0  0  0  0  0  0  0  0
   -0.6067   -6.9475   31.3937 C   0  0  0  0  0  0  0  0  0  0  0  0
   -1.4367   -7.9498   31.2444 N   0  0  0  0  0  0  0  0  0  0  0  0
   -1.7664   -8.3782   32.4998 N   0  0  0  0  0  0  0  0  0  0  0  0
   -1.1369   -7.6399   33.3882 C   0  0  0  0  0  0  0  0  0  0  0  0
   -1.2071   -7.7709   34.7329 N   0  0  0  0  0  0  0  0  0  0  0  0
   -0.3526   -6.7149   32.7271 N   0  0  0  0  0  0  0  0  0  0  0  0
    0.5221   -5.7258   33.1650 C   0  0  0  0  0  0  0  0  0  0  0  0
    1.1701   -4.9471   32.2625 C   0  0  0  0  0  0  0  0  0  0  0  0
    1.9945   -3.8678   32.8237 C   0  0  0  0  0  0  0  0  0  0  0  0
    1.4293   -2.7131   33.3574 C   0  0  0  0  0  0  0  0  0  0  0  0
    2.1695   -1.6798   33.8365 N   0  0  0  0  0  0  0  0  0  0  0  0
    3.5040   -1.8274   33.7027 C   0  0  0  0  0  0  0  0  0  0  0  0
    4.0724   -2.9761   33.1823 C   0  0  0  0  0  0  0  0  0  0  0  0
    3.3360   -4.0378   32.7800 N   0  0  0  0  0  0  0  0  0  0  0  0
    2.9644    0.7048   29.9345 N   0  0  0  0  0  0  0  0  0  0  0  0
    1.6650    0.6198   29.5222 C   0  0  0  0  0  0  0  0  0  0  0  0
    1.3239    0.5074   28.2294 C   0  0  0  0  0  0  0  0  0  0  0  0
    0.0489    0.2424   27.8288 N   0  0  0  0  0  0  0  0  0  0  0  0
   -0.9972    0.0138   28.6759 C   0  0  0  0  0  0  0  0  0  0  0  0
   -2.1014   -0.2639   28.2384 O   0  0  0  0  0  0  0  0  0  0  0  0
   -0.7031    0.1207   30.1250 C   0  0  0  0  0  0  0  0  0  0  0  0
   -1.7039   -0.1492   31.0643 C   0  0  0  0  0  0  0  0  0  0  0  0
   -1.4444   -0.0113   32.4254 C   0  0  0  0  0  0  0  0  0  0  0  0
   -0.1866    0.4103   32.8442 C   0  0  0  0  0  0  0  0  0  0  0  0
    0.8263    0.6460   31.9082 C   0  0  0  0  0  0  0  0  0  0  0  0
    0.5915    0.4830   30.5355 C   0  0  0  0  0  0  0  0  0  0  0  0
    4.8916    3.5503   30.0929 H   0  0  0  0  0  0  0  0  0  0  0  0
    3.5862    3.9246   30.9738 H   0  0  0  0  0  0  0  0  0  0  0  0
    3.9721    2.1788   32.5172 H   0  0  0  0  0  0  0  0  0  0  0  0
    5.3823    3.2254   32.3464 H   0  0  0  0  0  0  0  0  0  0  0  0
    8.4237   -0.0094   31.4087 H   0  0  0  0  0  0  0  0  0  0  0  0
    2.4123   -1.9361   28.7316 H   0  0  0  0  0  0  0  0  0  0  0  0
    1.8843   -1.9868   30.4319 H   0  0  0  0  0  0  0  0  0  0  0  0
    3.2360   -4.0842   28.7476 H   0  0  0  0  0  0  0  0  0  0  0  0
    3.4818   -4.1904   30.4536 H   0  0  0  0  0  0  0  0  0  0  0  0
    1.0444   -4.5324   28.8839 H   0  0  0  0  0  0  0  0  0  0  0  0
   -0.2853   -6.2437   29.4338 H   0  0  0  0  0  0  0  0  0  0  0  0
   -0.4094   -7.5184   35.3029 H   0  0  0  0  0  0  0  0  0  0  0  0
   -1.5168   -8.7249   34.9969 H   0  0  0  0  0  0  0  0  0  0  0  0
    0.6254   -5.6145   34.2377 H   0  0  0  0  0  0  0  0  0  0  0  0
    0.3538   -2.5778   33.4006 H   0  0  0  0  0  0  0  0  0  0  0  0
    4.1155   -0.9954   34.0302 H   0  0  0  0  0  0  0  0  0  0  0  0
    5.1466   -3.0742   33.0721 H   0  0  0  0  0  0  0  0  0  0  0  0
    3.3990    1.6218   30.0697 H   0  0  0  0  0  0  0  0  0  0  0  0
    2.0653    0.5609   27.4384 H   0  0  0  0  0  0  0  0  0  0  0  0
   -0.1820    0.0844   26.8559 H   0  0  0  0  0  0  0  0  0  0  0  0
   -2.6868   -0.4562   30.7295 H   0  0  0  0  0  0  0  0  0  0  0  0
   -2.2213   -0.2260   33.1547 H   0  0  0  0  0  0  0  0  0  0  0  0
    0.0288    0.5150   33.9055 H   0  0  0  0  0  0  0  0  0  0  0  0
    1.8109    0.9202   32.2749 H   0  0  0  0  0  0  0  0  0  0  0  0
  1  2  1  0
  2  3  1  0
  3  4  1  0
  4  5  1  0
  5  6  2  0
  6  7  1  0
  7  8  1  0
  8  9  2  3
  9 10  1  0
 10 11  1  0
 11 12  1  0
 12 13  1  0
 13 14  2  0
 14 15  1  0
 15 16  2  0
 16 17  1  0
 17 18  2  0
 18 19  1  0
 18 20  1  0
 20 21  1  0
 21 22  2  0
 22 23  1  0
 23 24  2  0
 24 25  1  0
 25 26  2  0
 26 27  1  0
 27 28  2  0
  8 29  1  0
 29 30  1  0
 30 31  2  0
 31 32  1  0
 32 33  1  0
 33 34  2  0
 33 35  1  0
 35 36  2  0
 36 37  1  0
 37 38  2  0
 38 39  1  0
 39 40  2  0
  7  3  2  0
 22 13  1  0
 28 23  1  0
 40 30  1  0
 20 15  1  0
 40 35  1  0
  1 41  1  0
  1 42  1  0
  2 43  1  0
  2 44  1  0
  5 45  1  0
 10 46  1  0
 10 47  1  0
 11 48  1  0
 11 49  1  0
 12 50  1  0
 14 51  1  0
 19 52  1  0
 19 53  1  0
 21 54  1  0
 24 55  1  0
 26 56  1  0
 27 57  1  0
 29 58  1  0
 31 59  1  0
 32 60  1  0
 36 61  1  0
 37 62  1  0
 38 63  1  0
 39 64  1  0
M  END
>  <Energy>  (956) 
189.95939821674745

>  <compound_id>  (956) 
4458

>  <target_id>  (956) 
1

>  <reference_id>  (956) 
157

>  <inspiration_ids>  (956) 
[157, 70]

>  <energy_score>  (956) 
-72.09181684211319

>  <distance_score>  (956) 
0.9715369509477698

>  <path>  (956) 
/opt/xchem-fragalysis-2/maxwin/BulkDock/SCRATCH/505735/C4458-P157/C4458-P157.minimised.mol

>  <scratch_subdir>  (956) 
/opt/xchem-fragalysis-2/maxwin/BulkDock/SCRATCH/505735/C4458-P157

>  <fragmenstein_runtime>  (956) 
7.089517593383789

>  <fragmenstein_outcome>  (956) 
acceptable

>  <fragmenstein_mode>  (956) 
expansion

>  <fragmenstein_error>  (956) 


$$$$
C4458-P70
     RDKit          3D

 64 69  0  0  0  0  0  0  0  0999 V2000
    3.5663    3.0904   31.1803 N   0  0  0  0  0  0  0  0  0  0  0  0
    4.0272    2.0583   32.1111 C   0  0  0  0  0  0  0  0  0  0  0  0
    4.7371    0.9975   31.3632 C   0  0  0  0  0  0  0  0  0  0  0  0
    6.0858    0.9006   31.5818 O   0  0  0  0  0  0  0  0  0  0  0  0
    6.4742   -0.1379   30.7994 C   0  0  0  0  0  0  0  0  0  0  0  0
    5.5096   -0.7170   30.1298 N   0  0  0  0  0  0  0  0  0  0  0  0
    4.3712    0.0170   30.4515 C   0  0  0  0  0  0  0  0  0  0  0  0
    3.0321   -0.2865   29.9020 C   0  0  0  0  0  0  0  0  0  0  0  0
    2.7746   -1.4109   29.5845 N   0  0  0  0  0  0  0  0  0  0  0  0
    3.3900   -2.6995   29.5564 C   0  0  0  0  0  0  0  0  0  0  0  0
    2.2324   -3.6963   29.3234 C   0  0  0  0  0  0  0  0  0  0  0  0
    2.3551   -4.9055   30.1407 N   0  0  0  0  0  0  0  0  0  0  0  0
    1.2987   -5.3784   30.9201 C   0  0  0  0  0  0  0  0  0  0  0  0
    0.4240   -6.2998   30.4498 C   0  0  0  0  0  0  0  0  0  0  0  0
   -0.4308   -7.0106   31.3293 C   0  0  0  0  0  0  0  0  0  0  0  0
   -1.2846   -7.9984   31.1469 N   0  0  0  0  0  0  0  0  0  0  0  0
   -1.7042   -8.4188   32.3900 N   0  0  0  0  0  0  0  0  0  0  0  0
   -1.1586   -7.6361   33.2957 C   0  0  0  0  0  0  0  0  0  0  0  0
   -1.3317   -7.7026   34.6364 N   0  0  0  0  0  0  0  0  0  0  0  0
   -0.3439   -6.7062   32.6743 N   0  0  0  0  0  0  0  0  0  0  0  0
    0.4358   -5.6693   33.1796 C   0  0  0  0  0  0  0  0  0  0  0  0
    1.2340   -4.9608   32.3476 C   0  0  0  0  0  0  0  0  0  0  0  0
    1.9911   -3.8230   32.9136 C   0  0  0  0  0  0  0  0  0  0  0  0
    1.3449   -2.7490   33.5259 C   0  0  0  0  0  0  0  0  0  0  0  0
    1.9870   -1.6405   33.9768 N   0  0  0  0  0  0  0  0  0  0  0  0
    3.3218   -1.6452   33.7800 C   0  0  0  0  0  0  0  0  0  0  0  0
    3.9796   -2.7111   33.1951 C   0  0  0  0  0  0  0  0  0  0  0  0
    3.3365   -3.8239   32.7768 N   0  0  0  0  0  0  0  0  0  0  0  0
    2.1447    1.0037   29.8790 N   0  0  0  0  0  0  0  0  0  0  0  0
    0.8779    1.2022   29.4080 C   0  0  0  0  0  0  0  0  0  0  0  0
    0.5093    2.2106   28.6088 C   0  0  0  0  0  0  0  0  0  0  0  0
   -0.6024    2.1239   27.8059 N   0  0  0  0  0  0  0  0  0  0  0  0
   -1.3395    0.9737   27.6306 C   0  0  0  0  0  0  0  0  0  0  0  0
   -2.1878    0.8692   26.7536 O   0  0  0  0  0  0  0  0  0  0  0  0
   -1.0562   -0.1148   28.5839 C   0  0  0  0  0  0  0  0  0  0  0  0
   -1.7703   -1.3049   28.5272 C   0  0  0  0  0  0  0  0  0  0  0  0
   -1.6176   -2.2430   29.5422 C   0  0  0  0  0  0  0  0  0  0  0  0
   -0.8081   -1.9676   30.6338 C   0  0  0  0  0  0  0  0  0  0  0  0
   -0.0308   -0.8116   30.6398 C   0  0  0  0  0  0  0  0  0  0  0  0
   -0.0845    0.0868   29.5643 C   0  0  0  0  0  0  0  0  0  0  0  0
    4.3901    3.5628   30.7968 H   0  0  0  0  0  0  0  0  0  0  0  0
    3.0804    3.8128   31.7175 H   0  0  0  0  0  0  0  0  0  0  0  0
    3.1664    1.6301   32.6355 H   0  0  0  0  0  0  0  0  0  0  0  0
    4.6796    2.5104   32.8658 H   0  0  0  0  0  0  0  0  0  0  0  0
    7.5255   -0.3891   30.8085 H   0  0  0  0  0  0  0  0  0  0  0  0
    3.9367   -2.9168   30.4724 H   0  0  0  0  0  0  0  0  0  0  0  0
    4.0973   -2.7726   28.7229 H   0  0  0  0  0  0  0  0  0  0  0  0
    1.2658   -3.2290   29.5200 H   0  0  0  0  0  0  0  0  0  0  0  0
    2.2094   -3.9764   28.2640 H   0  0  0  0  0  0  0  0  0  0  0  0
    2.6992   -5.6547   29.5504 H   0  0  0  0  0  0  0  0  0  0  0  0
    0.4400   -6.6135   29.4137 H   0  0  0  0  0  0  0  0  0  0  0  0
   -1.9839   -8.4211   34.9467 H   0  0  0  0  0  0  0  0  0  0  0  0
   -1.4284   -6.8269   35.1397 H   0  0  0  0  0  0  0  0  0  0  0  0
    0.3734   -5.4890   34.2441 H   0  0  0  0  0  0  0  0  0  0  0  0
    0.2684   -2.7331   33.6555 H   0  0  0  0  0  0  0  0  0  0  0  0
    3.8602   -0.7681   34.1180 H   0  0  0  0  0  0  0  0  0  0  0  0
    5.0527   -2.7020   33.0433 H   0  0  0  0  0  0  0  0  0  0  0  0
    2.7125    1.8119   30.1418 H   0  0  0  0  0  0  0  0  0  0  0  0
    1.1431    3.0741   28.4345 H   0  0  0  0  0  0  0  0  0  0  0  0
   -0.8244    2.8821   27.1712 H   0  0  0  0  0  0  0  0  0  0  0  0
   -2.4573   -1.4985   27.7072 H   0  0  0  0  0  0  0  0  0  0  0  0
   -2.1559   -3.1780   29.4821 H   0  0  0  0  0  0  0  0  0  0  0  0
   -0.7290   -2.6884   31.4377 H   0  0  0  0  0  0  0  0  0  0  0  0
    0.6661   -0.6471   31.4575 H   0  0  0  0  0  0  0  0  0  0  0  0
  1  2  1  0
  2  3  1  0
  3  4  1  0
  4  5  1  0
  5  6  2  0
  6  7  1  0
  7  8  1  0
  8  9  2  3
  9 10  1  0
 10 11  1  0
 11 12  1  0
 12 13  1  0
 13 14  2  0
 14 15  1  0
 15 16  2  0
 16 17  1  0
 17 18  2  0
 18 19  1  0
 18 20  1  0
 20 21  1  0
 21 22  2  0
 22 23  1  0
 23 24  2  0
 24 25  1  0
 25 26  2  0
 26 27  1  0
 27 28  2  0
  8 29  1  0
 29 30  1  0
 30 31  2  0
 31 32  1  0
 32 33  1  0
 33 34  2  0
 33 35  1  0
 35 36  2  0
 36 37  1  0
 37 38  2  0
 38 39  1  0
 39 40  2  0
  7  3  2  0
 22 13  1  0
 28 23  1  0
 40 30  1  0
 20 15  1  0
 40 35  1  0
  1 41  1  0
  1 42  1  0
  2 43  1  0
  2 44  1  0
  5 45  1  0
 10 46  1  0
 10 47  1  0
 11 48  1  0
 11 49  1  0
 12 50  1  0
 14 51  1  0
 19 52  1  0
 19 53  1  0
 21 54  1  0
 24 55  1  0
 26 56  1  0
 27 57  1  0
 29 58  1  0
 31 59  1  0
 32 60  1  0
 36 61  1  0
 37 62  1  0
 38 63  1  0
 39 64  1  0
M  END
>  <Energy>  (957) 
208.42608842891192

>  <compound_id>  (957) 
4458

>  <target_id>  (957) 
1

>  <reference_id>  (957) 
70

>  <inspiration_ids>  (957) 
[157, 70]

>  <energy_score>  (957) 
-53.625126629945385

>  <distance_score>  (957) 
1.0425737445021723

>  <path>  (957) 
/opt/xchem-fragalysis-2/maxwin/BulkDock/SCRATCH/505735/C4458-P70/C4458-P70.minimised.mol

>  <scratch_subdir>  (957) 
/opt/xchem-fragalysis-2/maxwin/BulkDock/SCRATCH/505735/C4458-P70

>  <fragmenstein_runtime>  (957) 
10.2472825050354

>  <fragmenstein_outcome>  (957) 
too moved

>  <fragmenstein_mode>  (957) 
expansion

>  <fragmenstein_error>  (957) 


$$$$
C4435-P157
     RDKit          3D

 37 40  0  0  0  0  0  0  0  0999 V2000
   -0.7504   -7.9546   34.6397 N   0  0  0  0  0  0  0  0  0  0  0  0
   -0.9092   -7.6087   33.3466 C   0  0  0  0  0  0  0  0  0  0  0  0
   -1.5335   -8.3265   32.4376 N   0  0  0  0  0  0  0  0  0  0  0  0
   -1.3351   -7.7640   31.2156 N   0  0  0  0  0  0  0  0  0  0  0  0
   -0.5702   -6.7164   31.4003 C   0  0  0  0  0  0  0  0  0  0  0  0
   -0.0026   -5.8399   30.4599 C   0  0  0  0  0  0  0  0  0  0  0  0
    0.7997   -4.8548   30.8678 C   0  0  0  0  0  0  0  0  0  0  0  0
    1.0742   -4.6127   32.2831 C   0  0  0  0  0  0  0  0  0  0  0  0
    1.8925   -3.4317   32.6261 C   0  0  0  0  0  0  0  0  0  0  0  0
    1.4179   -2.4049   33.4391 C   0  0  0  0  0  0  0  0  0  0  0  0
    2.1597   -1.3168   33.7487 N   0  0  0  0  0  0  0  0  0  0  0  0
    3.3730   -1.2565   33.1569 C   0  0  0  0  0  0  0  0  0  0  0  0
    3.8377   -2.2559   32.3200 C   0  0  0  0  0  0  0  0  0  0  0  0
    3.1177   -3.3686   32.0479 N   0  0  0  0  0  0  0  0  0  0  0  0
    0.5084   -5.4269   33.2256 C   0  0  0  0  0  0  0  0  0  0  0  0
    0.7940   -5.1835   34.5599 N   0  0  0  0  0  0  0  0  0  0  0  0
   -0.1103   -5.3273   35.8352 C   0  0  0  0  0  0  0  0  0  0  0  0
   -1.1748   -5.7358   35.9447 O   0  0  0  0  0  0  0  0  0  0  0  0
    0.8739   -4.7673   36.9159 N   0  0  0  0  0  0  0  0  0  0  0  0
    0.7524   -4.7053   38.2724 C   0  0  0  0  0  0  0  0  0  0  0  0
   -0.3038   -5.1220   39.1052 C   0  0  0  0  0  0  0  0  0  0  0  0
   -0.0433   -4.8975   40.3974 N   0  0  0  0  0  0  0  0  0  0  0  0
    1.1740   -4.3330   40.3827 N   0  0  0  0  0  0  0  0  0  0  0  0
    1.6963   -4.1944   39.1276 C   0  0  0  0  0  0  0  0  0  0  0  0
   -0.3118   -6.5007   32.7575 N   0  0  0  0  0  0  0  0  0  0  0  0
   -1.1451   -8.8883   34.8556 H   0  0  0  0  0  0  0  0  0  0  0  0
   -1.1790   -7.3143   35.3127 H   0  0  0  0  0  0  0  0  0  0  0  0
   -0.2539   -5.9632   29.4206 H   0  0  0  0  0  0  0  0  0  0  0  0
    1.2299   -4.1706   30.1385 H   0  0  0  0  0  0  0  0  0  0  0  0
    0.4188   -2.4208   33.8648 H   0  0  0  0  0  0  0  0  0  0  0  0
    3.9658   -0.3742   33.3725 H   0  0  0  0  0  0  0  0  0  0  0  0
    4.8120   -2.1906   31.8481 H   0  0  0  0  0  0  0  0  0  0  0  0
    1.6476   -4.7089   34.8013 H   0  0  0  0  0  0  0  0  0  0  0  0
    1.7007   -4.4160   36.4702 H   0  0  0  0  0  0  0  0  0  0  0  0
   -1.2464   -5.5761   38.8289 H   0  0  0  0  0  0  0  0  0  0  0  0
    1.5880   -4.0670   41.2702 H   0  0  0  0  0  0  0  0  0  0  0  0
    2.6703   -3.7550   38.9743 H   0  0  0  0  0  0  0  0  0  0  0  0
  1  2  1  0
  2  3  2  0
  3  4  1  0
  4  5  2  0
  5  6  1  0
  6  7  2  0
  7  8  1  0
  8  9  1  0
  9 10  2  0
 10 11  1  0
 11 12  2  0
 12 13  1  0
 13 14  2  0
  8 15  2  0
 15 16  1  0
 16 17  1  0
 17 18  2  0
 17 19  1  0
 19 20  1  0
 20 21  1  0
 21 22  2  0
 22 23  1  0
 23 24  1  0
 15 25  1  0
 25  2  1  0
 25  5  1  0
 14  9  1  0
 24 20  2  0
  1 26  1  0
  1 27  1  0
  6 28  1  0
  7 29  1  0
 10 30  1  0
 12 31  1  0
 13 32  1  0
 16 33  1  0
 19 34  1  0
 21 35  1  0
 23 36  1  0
 24 37  1  0
M  END
>  <Energy>  (958) 
104.38050561871822

>  <compound_id>  (958) 
4435

>  <target_id>  (958) 
1

>  <reference_id>  (958) 
157

>  <inspiration_ids>  (958) 
[157, 105]

>  <energy_score>  (958) 
-42.57609480096539

>  <distance_score>  (958) 
0.6556945170838372

>  <path>  (958) 
/opt/xchem-fragalysis-2/maxwin/BulkDock/SCRATCH/505735/C4435-P157/C4435-P157.minimised.mol

>  <scratch_subdir>  (958) 
/opt/xchem-fragalysis-2/maxwin/BulkDock/SCRATCH/505735/C4435-P157

>  <fragmenstein_runtime>  (958) 
2.4522557258605957

>  <fragmenstein_outcome>  (958) 
acceptable

>  <fragmenstein_mode>  (958) 
expansion

>  <fragmenstein_error>  (958) 


$$$$
C4435-P105
     RDKit          3D

 37 40  0  0  0  0  0  0  0  0999 V2000
   -0.7797   -7.9008   34.7229 N   0  0  0  0  0  0  0  0  0  0  0  0
   -0.9298   -7.5545   33.4294 C   0  0  0  0  0  0  0  0  0  0  0  0
   -1.5578   -8.2730   32.5236 N   0  0  0  0  0  0  0  0  0  0  0  0
   -1.3665   -7.7031   31.3039 N   0  0  0  0  0  0  0  0  0  0  0  0
   -0.6022   -6.6537   31.4894 C   0  0  0  0  0  0  0  0  0  0  0  0
   -0.0491   -5.7613   30.5584 C   0  0  0  0  0  0  0  0  0  0  0  0
    0.7689   -4.7897   30.9648 C   0  0  0  0  0  0  0  0  0  0  0  0
    1.0538   -4.5578   32.3786 C   0  0  0  0  0  0  0  0  0  0  0  0
    1.8790   -3.3812   32.7149 C   0  0  0  0  0  0  0  0  0  0  0  0
    1.4023   -2.3368   33.5024 C   0  0  0  0  0  0  0  0  0  0  0  0
    2.1486   -1.2492   33.8011 N   0  0  0  0  0  0  0  0  0  0  0  0
    3.3683   -1.2073   33.2203 C   0  0  0  0  0  0  0  0  0  0  0  0
    3.8349   -2.2241   32.4059 C   0  0  0  0  0  0  0  0  0  0  0  0
    3.1100   -3.3364   32.1480 N   0  0  0  0  0  0  0  0  0  0  0  0
    0.4766   -5.3662   33.3194 C   0  0  0  0  0  0  0  0  0  0  0  0
    0.7223   -5.0990   34.6583 N   0  0  0  0  0  0  0  0  0  0  0  0
   -0.2078   -5.2590   35.9146 C   0  0  0  0  0  0  0  0  0  0  0  0
   -1.2613   -5.7015   36.0036 O   0  0  0  0  0  0  0  0  0  0  0  0
    0.7194   -4.6257   37.0074 N   0  0  0  0  0  0  0  0  0  0  0  0
    0.5489   -4.5203   38.3578 C   0  0  0  0  0  0  0  0  0  0  0  0
    1.4070   -3.9444   39.3153 C   0  0  0  0  0  0  0  0  0  0  0  0
    0.9074   -4.0132   40.5527 N   0  0  0  0  0  0  0  0  0  0  0  0
   -0.2759   -4.6314   40.3807 N   0  0  0  0  0  0  0  0  0  0  0  0
   -0.5302   -4.9586   39.0804 C   0  0  0  0  0  0  0  0  0  0  0  0
   -0.3361   -6.4438   32.8450 N   0  0  0  0  0  0  0  0  0  0  0  0
   -1.1658   -8.8376   34.9164 H   0  0  0  0  0  0  0  0  0  0  0  0
   -1.2130   -7.2557   35.3871 H   0  0  0  0  0  0  0  0  0  0  0  0
   -0.3191   -5.8578   29.5250 H   0  0  0  0  0  0  0  0  0  0  0  0
    1.1919   -4.1003   30.2360 H   0  0  0  0  0  0  0  0  0  0  0  0
    0.3976   -2.3367   33.9142 H   0  0  0  0  0  0  0  0  0  0  0  0
    3.9649   -0.3253   33.4264 H   0  0  0  0  0  0  0  0  0  0  0  0
    4.8139   -2.1738   31.9421 H   0  0  0  0  0  0  0  0  0  0  0  0
    1.5538   -4.5938   34.9143 H   0  0  0  0  0  0  0  0  0  0  0  0
    1.5490   -4.2605   36.5766 H   0  0  0  0  0  0  0  0  0  0  0  0
    2.3714   -3.4764   39.1704 H   0  0  0  0  0  0  0  0  0  0  0  0
   -0.8609   -4.7966   41.1940 H   0  0  0  0  0  0  0  0  0  0  0  0
   -1.4453   -5.4569   38.7989 H   0  0  0  0  0  0  0  0  0  0  0  0
  1  2  1  0
  2  3  2  0
  3  4  1  0
  4  5  2  0
  5  6  1  0
  6  7  2  0
  7  8  1  0
  8  9  1  0
  9 10  2  0
 10 11  1  0
 11 12  2  0
 12 13  1  0
 13 14  2  0
  8 15  2  0
 15 16  1  0
 16 17  1  0
 17 18  2  0
 17 19  1  0
 19 20  1  0
 20 21  1  0
 21 22  2  0
 22 23  1  0
 23 24  1  0
 15 25  1  0
 25  2  1  0
 25  5  1  0
 14  9  1  0
 24 20  2  0
  1 26  1  0
  1 27  1  0
  6 28  1  0
  7 29  1  0
 10 30  1  0
 12 31  1  0
 13 32  1  0
 16 33  1  0
 19 34  1  0
 21 35  1  0
 23 36  1  0
 24 37  1  0
M  END
>  <Energy>  (959) 
106.0042997727262

>  <compound_id>  (959) 
4435

>  <target_id>  (959) 
1

>  <reference_id>  (959) 
105

>  <inspiration_ids>  (959) 
[157, 105]

>  <energy_score>  (959) 
-40.95230064695585

>  <distance_score>  (959) 
0.7226950445896171

>  <path>  (959) 
/opt/xchem-fragalysis-2/maxwin/BulkDock/SCRATCH/505735/C4435-P105/C4435-P105.minimised.mol

>  <scratch_subdir>  (959) 
/opt/xchem-fragalysis-2/maxwin/BulkDock/SCRATCH/505735/C4435-P105

>  <fragmenstein_runtime>  (959) 
2.016723394393921

>  <fragmenstein_outcome>  (959) 
acceptable

>  <fragmenstein_mode>  (959) 
expansion

>  <fragmenstein_error>  (959) 


$$$$
C4435-P157
     RDKit          2D

  0  0  0  0  0  0  0  0  0  0999 V2000
M  END
>  <compound_id>  (960) 
4435

>  <target_id>  (960) 
1

>  <reference_id>  (960) 
157

>  <inspiration_ids>  (960) 
[157, 128]

>  <energy_score>  (960) 
nan

>  <distance_score>  (960) 
nan

>  <path>  (960) 
/opt/xchem-fragalysis-2/maxwin/BulkDock/SCRATCH/505735/C4435-P157/C4435-P157.minimised.mol

>  <scratch_subdir>  (960) 
/opt/xchem-fragalysis-2/maxwin/BulkDock/SCRATCH/505735/C4435-P157

>  <fragmenstein_runtime>  (960) 
0.29521942138671875

>  <fragmenstein_outcome>  (960) 
too distant

>  <fragmenstein_mode>  (960) 
expansion

>  <fragmenstein_error>  (960) 
DistanceError: hit0+hit1

$$$$
C4438-P157
     RDKit          3D

 36 39  0  0  0  0  0  0  0  0999 V2000
    0.6431    1.9499   28.9801 C   0  0  0  0  0  0  0  0  0  0  0  0
    0.1037    0.7440   29.3893 C   0  0  0  0  0  0  0  0  0  0  0  0
   -0.9373    0.1862   28.6461 C   0  0  0  0  0  0  0  0  0  0  0  0
   -1.7415   -0.9945   29.1099 C   0  0  0  0  0  0  0  0  0  0  0  0
   -1.0181   -2.0542   29.7704 N   0  0  0  0  0  0  0  0  0  0  0  0
   -0.7167   -1.9252   31.0792 C   0  0  0  0  0  0  0  0  0  0  0  0
   -0.9832   -0.9428   31.9152 N   0  0  0  0  0  0  0  0  0  0  0  0
   -0.2497   -1.1383   33.0685 N   0  0  0  0  0  0  0  0  0  0  0  0
    0.3281   -2.3132   32.9645 C   0  0  0  0  0  0  0  0  0  0  0  0
    1.1241   -3.0944   33.8400 C   0  0  0  0  0  0  0  0  0  0  0  0
    1.2968   -4.4051   33.5720 C   0  0  0  0  0  0  0  0  0  0  0  0
    0.6879   -5.0241   32.3954 C   0  0  0  0  0  0  0  0  0  0  0  0
    0.2291   -6.4030   32.2591 C   0  0  0  0  0  0  0  0  0  0  0  0
   -0.5957   -6.9289   33.2479 C   0  0  0  0  0  0  0  0  0  0  0  0
   -1.3339   -8.0265   33.0409 N   0  0  0  0  0  0  0  0  0  0  0  0
   -1.2204   -8.5727   31.8196 C   0  0  0  0  0  0  0  0  0  0  0  0
   -0.4061   -8.0638   30.8309 C   0  0  0  0  0  0  0  0  0  0  0  0
    0.3396   -6.9654   31.0274 N   0  0  0  0  0  0  0  0  0  0  0  0
    0.1464   -4.2232   31.4633 C   0  0  0  0  0  0  0  0  0  0  0  0
   -0.0264   -2.8896   31.7604 N   0  0  0  0  0  0  0  0  0  0  0  0
   -1.3848    0.8838   27.5179 C   0  0  0  0  0  0  0  0  0  0  0  0
   -0.7927    2.0907   27.1971 C   0  0  0  0  0  0  0  0  0  0  0  0
    0.2252    2.6309   27.8951 N   0  0  0  0  0  0  0  0  0  0  0  0
    1.4433    2.4229   29.5416 H   0  0  0  0  0  0  0  0  0  0  0  0
    0.4810    0.2921   30.2967 H   0  0  0  0  0  0  0  0  0  0  0  0
   -2.2512   -1.4378   28.2476 H   0  0  0  0  0  0  0  0  0  0  0  0
   -2.4868   -0.5792   29.7935 H   0  0  0  0  0  0  0  0  0  0  0  0
   -0.4900   -2.6494   29.1404 H   0  0  0  0  0  0  0  0  0  0  0  0
    1.5373   -2.6294   34.7280 H   0  0  0  0  0  0  0  0  0  0  0  0
    1.8734   -5.0333   34.2443 H   0  0  0  0  0  0  0  0  0  0  0  0
   -0.7511   -6.4383   34.2029 H   0  0  0  0  0  0  0  0  0  0  0  0
   -1.7865   -9.4729   31.6659 H   0  0  0  0  0  0  0  0  0  0  0  0
   -0.3044   -8.5516   29.8688 H   0  0  0  0  0  0  0  0  0  0  0  0
   -0.3594   -4.5755   30.5705 H   0  0  0  0  0  0  0  0  0  0  0  0
   -2.2074    0.5180   26.9118 H   0  0  0  0  0  0  0  0  0  0  0  0
   -1.1395    2.6770   26.3509 H   0  0  0  0  0  0  0  0  0  0  0  0
  1  2  2  0
  2  3  1  0
  3  4  1  0
  4  5  1  0
  5  6  1  0
  6  7  2  0
  7  8  1  0
  8  9  2  0
  9 10  1  0
 10 11  2  0
 11 12  1  0
 12 13  1  0
 13 14  2  0
 14 15  1  0
 15 16  2  0
 16 17  1  0
 17 18  2  0
 12 19  2  0
 19 20  1  0
  3 21  2  0
 21 22  1  0
 22 23  2  0
 23  1  1  0
 20  6  1  0
 20  9  1  0
 18 13  1  0
  1 24  1  0
  2 25  1  0
  4 26  1  0
  4 27  1  0
  5 28  1  0
 10 29  1  0
 11 30  1  0
 14 31  1  0
 16 32  1  0
 17 33  1  0
 19 34  1  0
 21 35  1  0
 22 36  1  0
M  END
>  <Energy>  (961) 
124.59664330717389

>  <compound_id>  (961) 
4438

>  <target_id>  (961) 
1

>  <reference_id>  (961) 
157

>  <inspiration_ids>  (961) 
[157, 131]

>  <energy_score>  (961) 
-9.248490155149284

>  <distance_score>  (961) 
1.5927477627394409

>  <path>  (961) 
/opt/xchem-fragalysis-2/maxwin/BulkDock/SCRATCH/505735/C4438-P157/C4438-P157.minimised.mol

>  <scratch_subdir>  (961) 
/opt/xchem-fragalysis-2/maxwin/BulkDock/SCRATCH/505735/C4438-P157

>  <fragmenstein_runtime>  (961) 
4.409495830535889

>  <fragmenstein_outcome>  (961) 
too moved

>  <fragmenstein_mode>  (961) 
expansion

>  <fragmenstein_error>  (961) 


$$$$
C4438-P131
     RDKit          3D

 36 39  0  0  0  0  0  0  0  0999 V2000
    0.4265    1.8285   29.0841 C   0  0  0  0  0  0  0  0  0  0  0  0
   -0.1495    0.6454   29.5145 C   0  0  0  0  0  0  0  0  0  0  0  0
   -1.1589    0.0595   28.7458 C   0  0  0  0  0  0  0  0  0  0  0  0
   -1.9744   -1.1225   29.2050 C   0  0  0  0  0  0  0  0  0  0  0  0
   -1.2347   -2.1785   29.8578 N   0  0  0  0  0  0  0  0  0  0  0  0
   -0.9098   -2.0284   31.1609 C   0  0  0  0  0  0  0  0  0  0  0  0
   -1.2161   -1.0644   32.0050 N   0  0  0  0  0  0  0  0  0  0  0  0
   -0.4506   -1.2207   33.1443 N   0  0  0  0  0  0  0  0  0  0  0  0
    0.1893   -2.3623   33.0274 C   0  0  0  0  0  0  0  0  0  0  0  0
    1.0327   -3.1081   33.8907 C   0  0  0  0  0  0  0  0  0  0  0  0
    1.2665   -4.4080   33.6141 C   0  0  0  0  0  0  0  0  0  0  0  0
    0.6825   -5.0474   32.4369 C   0  0  0  0  0  0  0  0  0  0  0  0
    0.2438   -6.4341   32.3014 C   0  0  0  0  0  0  0  0  0  0  0  0
   -0.6216   -6.9478   33.2627 C   0  0  0  0  0  0  0  0  0  0  0  0
   -1.3914   -8.0165   33.0172 N   0  0  0  0  0  0  0  0  0  0  0  0
   -1.2610   -8.5504   31.7923 C   0  0  0  0  0  0  0  0  0  0  0  0
   -0.3968   -8.0643   30.8377 C   0  0  0  0  0  0  0  0  0  0  0  0
    0.3737   -6.9907   31.0689 N   0  0  0  0  0  0  0  0  0  0  0  0
    0.0998   -4.2668   31.5119 C   0  0  0  0  0  0  0  0  0  0  0  0
   -0.1455   -2.9490   31.8232 N   0  0  0  0  0  0  0  0  0  0  0  0
   -1.5383    0.7176   27.5714 C   0  0  0  0  0  0  0  0  0  0  0  0
   -0.9196    1.9087   27.2342 C   0  0  0  0  0  0  0  0  0  0  0  0
    0.0709    2.4690   27.9547 N   0  0  0  0  0  0  0  0  0  0  0  0
    1.2044    2.3145   29.6655 H   0  0  0  0  0  0  0  0  0  0  0  0
    0.1837    0.2317   30.4563 H   0  0  0  0  0  0  0  0  0  0  0  0
   -2.4859   -1.5677   28.3447 H   0  0  0  0  0  0  0  0  0  0  0  0
   -2.7371   -0.7366   29.8870 H   0  0  0  0  0  0  0  0  0  0  0  0
   -0.6474   -2.7086   29.2203 H   0  0  0  0  0  0  0  0  0  0  0  0
    1.4249   -2.6307   34.7813 H   0  0  0  0  0  0  0  0  0  0  0  0
    1.8720   -5.0144   34.2809 H   0  0  0  0  0  0  0  0  0  0  0  0
   -0.7959   -6.4604   34.2169 H   0  0  0  0  0  0  0  0  0  0  0  0
   -1.8608   -9.4204   31.6096 H   0  0  0  0  0  0  0  0  0  0  0  0
   -0.2754   -8.5478   29.8761 H   0  0  0  0  0  0  0  0  0  0  0  0
   -0.3981   -4.6383   30.6225 H   0  0  0  0  0  0  0  0  0  0  0  0
   -2.3224    0.3296   26.9310 H   0  0  0  0  0  0  0  0  0  0  0  0
   -1.2195    2.4621   26.3491 H   0  0  0  0  0  0  0  0  0  0  0  0
  1  2  2  0
  2  3  1  0
  3  4  1  0
  4  5  1  0
  5  6  1  0
  6  7  2  0
  7  8  1  0
  8  9  2  0
  9 10  1  0
 10 11  2  0
 11 12  1  0
 12 13  1  0
 13 14  2  0
 14 15  1  0
 15 16  2  0
 16 17  1  0
 17 18  2  0
 12 19  2  0
 19 20  1  0
  3 21  2  0
 21 22  1  0
 22 23  2  0
 23  1  1  0
 20  6  1  0
 20  9  1  0
 18 13  1  0
  1 24  1  0
  2 25  1  0
  4 26  1  0
  4 27  1  0
  5 28  1  0
 10 29  1  0
 11 30  1  0
 14 31  1  0
 16 32  1  0
 17 33  1  0
 19 34  1  0
 21 35  1  0
 22 36  1  0
M  END
>  <Energy>  (962) 
126.23622189026452

>  <compound_id>  (962) 
4438

>  <target_id>  (962) 
1

>  <reference_id>  (962) 
131

>  <inspiration_ids>  (962) 
[157, 131]

>  <energy_score>  (962) 
-7.608911572056286

>  <distance_score>  (962) 
1.539549066971507

>  <path>  (962) 
/opt/xchem-fragalysis-2/maxwin/BulkDock/SCRATCH/505735/C4438-P131/C4438-P131.minimised.mol

>  <scratch_subdir>  (962) 
/opt/xchem-fragalysis-2/maxwin/BulkDock/SCRATCH/505735/C4438-P131

>  <fragmenstein_runtime>  (962) 
4.21566104888916

>  <fragmenstein_outcome>  (962) 
too moved

>  <fragmenstein_mode>  (962) 
expansion

>  <fragmenstein_error>  (962) 


$$$$
C4438-P157
     RDKit          2D

  0  0  0  0  0  0  0  0  0  0999 V2000
M  END
>  <compound_id>  (963) 
4438

>  <target_id>  (963) 
1

>  <reference_id>  (963) 
157

>  <inspiration_ids>  (963) 
[157, 132]

>  <energy_score>  (963) 
nan

>  <distance_score>  (963) 
nan

>  <path>  (963) 
/opt/xchem-fragalysis-2/maxwin/BulkDock/SCRATCH/505735/C4438-P157/C4438-P157.minimised.mol

>  <scratch_subdir>  (963) 
/opt/xchem-fragalysis-2/maxwin/BulkDock/SCRATCH/505735/C4438-P157

>  <fragmenstein_runtime>  (963) 
0.16335391998291016

>  <fragmenstein_outcome>  (963) 
too distant

>  <fragmenstein_mode>  (963) 
expansion

>  <fragmenstein_error>  (963) 
DistanceError: hit0+hit1

$$$$
C4439-P157
     RDKit          3D

 37 41  0  0  0  0  0  0  0  0999 V2000
   -1.5507   -7.2499   34.3039 N   0  0  0  0  0  0  0  0  0  0  0  0
   -1.2643   -7.2551   32.9832 C   0  0  0  0  0  0  0  0  0  0  0  0
   -1.6167   -8.1873   32.1224 N   0  0  0  0  0  0  0  0  0  0  0  0
   -0.9189   -8.0018   30.9612 N   0  0  0  0  0  0  0  0  0  0  0  0
   -0.1329   -6.9709   31.1507 C   0  0  0  0  0  0  0  0  0  0  0  0
    0.9127   -6.4271   30.3852 C   0  0  0  0  0  0  0  0  0  0  0  0
    1.6186   -5.3856   30.8403 C   0  0  0  0  0  0  0  0  0  0  0  0
    1.2450   -4.6557   32.0529 C   0  0  0  0  0  0  0  0  0  0  0  0
    1.9895   -3.4171   32.4020 C   0  0  0  0  0  0  0  0  0  0  0  0
    2.2797   -3.0312   33.7094 C   0  0  0  0  0  0  0  0  0  0  0  0
    2.9488   -1.8936   34.0108 N   0  0  0  0  0  0  0  0  0  0  0  0
    3.3249   -1.1454   32.9527 C   0  0  0  0  0  0  0  0  0  0  0  0
    3.0710   -1.5336   31.6504 C   0  0  0  0  0  0  0  0  0  0  0  0
    2.4142   -2.6777   31.3473 N   0  0  0  0  0  0  0  0  0  0  0  0
    0.1180   -5.0846   32.6893 C   0  0  0  0  0  0  0  0  0  0  0  0
   -0.8619   -3.9889   33.6196 S   0  0  0  0  0  0  0  0  0  0  0  0
   -1.0603   -2.6120   32.4841 C   0  0  0  0  0  0  0  0  0  0  0  0
   -0.9615   -1.4520   33.0405 N   0  0  0  0  0  0  0  0  0  0  0  0
   -0.9565   -0.3263   32.2554 C   0  0  0  0  0  0  0  0  0  0  0  0
   -1.0682    0.7981   32.7275 O   0  0  0  0  0  0  0  0  0  0  0  0
   -0.7608   -0.6147   30.8682 C   0  0  0  0  0  0  0  0  0  0  0  0
   -0.2563    0.5066   29.7277 S   0  0  0  0  0  0  0  0  0  0  0  0
   -0.2807   -0.6877   28.5014 C   0  0  0  0  0  0  0  0  0  0  0  0
   -0.6777   -1.9227   28.9567 C   0  0  0  0  0  0  0  0  0  0  0  0
   -0.9147   -1.8603   30.3369 C   0  0  0  0  0  0  0  0  0  0  0  0
   -1.2303   -2.8811   31.1461 N   0  0  0  0  0  0  0  0  0  0  0  0
   -0.4378   -6.3372   32.3428 N   0  0  0  0  0  0  0  0  0  0  0  0
   -1.7530   -8.1863   34.6798 H   0  0  0  0  0  0  0  0  0  0  0  0
   -1.0046   -6.6921   34.9524 H   0  0  0  0  0  0  0  0  0  0  0  0
    1.2086   -6.9211   29.4804 H   0  0  0  0  0  0  0  0  0  0  0  0
    2.4561   -5.0041   30.2579 H   0  0  0  0  0  0  0  0  0  0  0  0
    1.9868   -3.6230   34.5697 H   0  0  0  0  0  0  0  0  0  0  0  0
    3.8423   -0.2202   33.1809 H   0  0  0  0  0  0  0  0  0  0  0  0
    3.3824   -0.9244   30.8088 H   0  0  0  0  0  0  0  0  0  0  0  0
   -0.0284   -0.4130   27.4868 H   0  0  0  0  0  0  0  0  0  0  0  0
   -0.7714   -2.7948   28.3233 H   0  0  0  0  0  0  0  0  0  0  0  0
   -1.1909   -3.8345   30.8174 H   0  0  0  0  0  0  0  0  0  0  0  0
  1  2  1  0
  2  3  2  0
  3  4  1  0
  4  5  2  0
  5  6  1  0
  6  7  2  0
  7  8  1  0
  8  9  1  0
  9 10  2  0
 10 11  1  0
 11 12  2  0
 12 13  1  0
 13 14  2  0
  8 15  2  0
 15 16  1  0
 16 17  1  0
 17 18  2  0
 18 19  1  0
 19 20  2  0
 19 21  1  0
 21 22  1  0
 22 23  1  0
 23 24  2  0
 24 25  1  0
 25 26  1  0
 15 27  1  0
 27  2  1  0
 27  5  1  0
 14  9  1  0
 26 17  1  0
 25 21  2  0
  1 28  1  0
  1 29  1  0
  6 30  1  0
  7 31  1  0
 10 32  1  0
 12 33  1  0
 13 34  1  0
 23 35  1  0
 24 36  1  0
 26 37  1  0
M  END
>  <Energy>  (964) 
69.680256292431153

>  <compound_id>  (964) 
4439

>  <target_id>  (964) 
1

>  <reference_id>  (964) 
157

>  <inspiration_ids>  (964) 
[157, 134]

>  <energy_score>  (964) 
-58.935558545583035

>  <distance_score>  (964) 
2.159698724760878

>  <path>  (964) 
/opt/xchem-fragalysis-2/maxwin/BulkDock/SCRATCH/505735/C4439-P157/C4439-P157.minimised.mol

>  <scratch_subdir>  (964) 
/opt/xchem-fragalysis-2/maxwin/BulkDock/SCRATCH/505735/C4439-P157

>  <fragmenstein_runtime>  (964) 
3.1165049076080322

>  <fragmenstein_outcome>  (964) 
too moved

>  <fragmenstein_mode>  (964) 
expansion

>  <fragmenstein_error>  (964) 


$$$$
C4439-P134
     RDKit          3D

 37 41  0  0  0  0  0  0  0  0999 V2000
   -1.4703   -7.1808   34.4207 N   0  0  0  0  0  0  0  0  0  0  0  0
   -1.2531   -7.1633   33.0874 C   0  0  0  0  0  0  0  0  0  0  0  0
   -1.6451   -8.0895   32.2368 N   0  0  0  0  0  0  0  0  0  0  0  0
   -1.0289   -7.8781   31.0362 N   0  0  0  0  0  0  0  0  0  0  0  0
   -0.2447   -6.8406   31.1904 C   0  0  0  0  0  0  0  0  0  0  0  0
    0.7326   -6.2708   30.3581 C   0  0  0  0  0  0  0  0  0  0  0  0
    1.4743   -5.2428   30.7838 C   0  0  0  0  0  0  0  0  0  0  0  0
    1.2174   -4.5639   32.0528 C   0  0  0  0  0  0  0  0  0  0  0  0
    2.0129   -3.3558   32.3965 C   0  0  0  0  0  0  0  0  0  0  0  0
    2.3798   -3.0180   33.6981 C   0  0  0  0  0  0  0  0  0  0  0  0
    3.0861   -1.9037   33.9991 N   0  0  0  0  0  0  0  0  0  0  0  0
    3.4197   -1.1284   32.9464 C   0  0  0  0  0  0  0  0  0  0  0  0
    3.0926   -1.4711   31.6477 C   0  0  0  0  0  0  0  0  0  0  0  0
    2.3994   -2.5933   31.3437 N   0  0  0  0  0  0  0  0  0  0  0  0
    0.1303   -4.9954   32.7542 C   0  0  0  0  0  0  0  0  0  0  0  0
   -0.7783   -3.8794   33.7391 S   0  0  0  0  0  0  0  0  0  0  0  0
   -0.9980   -2.5133   32.5882 C   0  0  0  0  0  0  0  0  0  0  0  0
   -0.7618   -1.3494   33.0921 N   0  0  0  0  0  0  0  0  0  0  0  0
   -0.7508   -0.2486   32.2711 C   0  0  0  0  0  0  0  0  0  0  0  0
   -0.7145    0.8929   32.7139 O   0  0  0  0  0  0  0  0  0  0  0  0
   -0.7387   -0.5861   30.8808 C   0  0  0  0  0  0  0  0  0  0  0  0
   -0.3183    0.4770   29.6533 S   0  0  0  0  0  0  0  0  0  0  0  0
   -0.5456   -0.7456   28.4784 C   0  0  0  0  0  0  0  0  0  0  0  0
   -0.9398   -1.9476   29.0158 C   0  0  0  0  0  0  0  0  0  0  0  0
   -1.0247   -1.8333   30.4108 C   0  0  0  0  0  0  0  0  0  0  0  0
   -1.3151   -2.8083   31.2829 N   0  0  0  0  0  0  0  0  0  0  0  0
   -0.4659   -6.2328   32.4153 N   0  0  0  0  0  0  0  0  0  0  0  0
   -1.5960   -8.1287   34.8014 H   0  0  0  0  0  0  0  0  0  0  0  0
   -0.9199   -6.5970   35.0430 H   0  0  0  0  0  0  0  0  0  0  0  0
    0.9634   -6.7436   29.4249 H   0  0  0  0  0  0  0  0  0  0  0  0
    2.2603   -4.8415   30.1456 H   0  0  0  0  0  0  0  0  0  0  0  0
    2.1195   -3.6307   34.5543 H   0  0  0  0  0  0  0  0  0  0  0  0
    3.9642   -0.2191   33.1757 H   0  0  0  0  0  0  0  0  0  0  0  0
    3.3718   -0.8405   30.8105 H   0  0  0  0  0  0  0  0  0  0  0  0
   -0.4032   -0.5104   27.4332 H   0  0  0  0  0  0  0  0  0  0  0  0
   -1.1418   -2.8287   28.4210 H   0  0  0  0  0  0  0  0  0  0  0  0
   -1.3767   -3.7720   30.9914 H   0  0  0  0  0  0  0  0  0  0  0  0
  1  2  1  0
  2  3  2  0
  3  4  1  0
  4  5  2  0
  5  6  1  0
  6  7  2  0
  7  8  1  0
  8  9  1  0
  9 10  2  0
 10 11  1  0
 11 12  2  0
 12 13  1  0
 13 14  2  0
  8 15  2  0
 15 16  1  0
 16 17  1  0
 17 18  2  0
 18 19  1  0
 19 20  2  0
 19 21  1  0
 21 22  1  0
 22 23  1  0
 23 24  2  0
 24 25  1  0
 25 26  1  0
 15 27  1  0
 27  2  1  0
 27  5  1  0
 14  9  1  0
 26 17  1  0
 25 21  2  0
  1 28  1  0
  1 29  1  0
  6 30  1  0
  7 31  1  0
 10 32  1  0
 12 33  1  0
 13 34  1  0
 23 35  1  0
 24 36  1  0
 26 37  1  0
M  END
>  <Energy>  (965) 
70.85547018198676

>  <compound_id>  (965) 
4439

>  <target_id>  (965) 
1

>  <reference_id>  (965) 
134

>  <inspiration_ids>  (965) 
[157, 134]

>  <energy_score>  (965) 
-57.760344656027144

>  <distance_score>  (965) 
2.1830116162075117

>  <path>  (965) 
/opt/xchem-fragalysis-2/maxwin/BulkDock/SCRATCH/505735/C4439-P134/C4439-P134.minimised.mol

>  <scratch_subdir>  (965) 
/opt/xchem-fragalysis-2/maxwin/BulkDock/SCRATCH/505735/C4439-P134

>  <fragmenstein_runtime>  (965) 
2.770827531814575

>  <fragmenstein_outcome>  (965) 
too moved

>  <fragmenstein_mode>  (965) 
expansion

>  <fragmenstein_error>  (965) 


$$$$
C2650-P157
     RDKit          3D

 48 52  0  0  0  0  0  0  0  0999 V2000
   -1.5541   -3.9234   35.8623 N   0  0  0  0  0  0  0  0  0  0  0  0
   -1.2273   -5.1845   35.4891 C   0  0  0  0  0  0  0  0  0  0  0  0
   -1.8492   -6.3115   35.7397 N   0  0  0  0  0  0  0  0  0  0  0  0
   -1.0707   -7.3418   35.2843 N   0  0  0  0  0  0  0  0  0  0  0  0
    0.0360   -6.8048   34.8325 C   0  0  0  0  0  0  0  0  0  0  0  0
    1.3412   -7.3001   34.6863 C   0  0  0  0  0  0  0  0  0  0  0  0
    2.3409   -6.4279   34.4370 C   0  0  0  0  0  0  0  0  0  0  0  0
    3.5856   -6.7152   35.0146 N   0  0  0  0  0  0  0  0  0  0  0  0
    3.7813   -6.3781   36.7511 C   0  0  0  0  0  0  0  0  0  0  0  0
    5.0901   -7.8014   36.6756 C   0  0  0  0  0  0  0  0  0  0  0  0
    4.6386   -8.5954   37.8237 C   0  0  0  0  0  0  0  0  0  0  0  0
    5.0860   -9.9544   38.6516 S   0  0  0  0  0  0  0  0  0  0  0  0
    3.7479   -9.7124   39.7434 C   0  0  0  0  0  0  0  0  0  0  0  0
    2.9963   -8.5882   39.4259 C   0  0  0  0  0  0  0  0  0  0  0  0
    3.5725   -7.9562   38.3145 C   0  0  0  0  0  0  0  0  0  0  0  0
    3.2884   -6.6783   37.3166 C   0  0  0  0  0  0  0  0  0  0  0  0
    4.7208   -5.4255   36.8702 N   0  0  0  0  0  0  0  0  0  0  0  0
    6.0648   -5.4103   35.8867 C   0  0  0  0  0  0  0  0  0  0  0  0
    6.4668   -6.1488   35.1035 O   0  0  0  0  0  0  0  0  0  0  0  0
    6.6489   -4.0197   36.2172 C   0  0  0  0  0  0  0  0  0  0  0  0
    8.0839   -3.6557   35.1711 S   0  0  0  0  0  0  0  0  0  0  0  0
    5.4068   -2.7570   35.9102 Cl  0  0  0  0  0  0  0  0  0  0  0  0
    2.0668   -5.0452   33.9263 C   0  0  0  0  0  0  0  0  0  0  0  0
    3.0684   -4.1641   33.2660 C   0  0  0  0  0  0  0  0  0  0  0  0
    2.8138   -2.8594   32.8345 C   0  0  0  0  0  0  0  0  0  0  0  0
    3.7370   -2.0703   32.2275 N   0  0  0  0  0  0  0  0  0  0  0  0
    4.9492   -2.6325   32.0569 C   0  0  0  0  0  0  0  0  0  0  0  0
    5.2202   -3.9242   32.4641 C   0  0  0  0  0  0  0  0  0  0  0  0
    4.2958   -4.7086   33.0711 N   0  0  0  0  0  0  0  0  0  0  0  0
    0.8384   -4.5760   34.2274 C   0  0  0  0  0  0  0  0  0  0  0  0
   -0.0962   -5.4386   34.7739 N   0  0  0  0  0  0  0  0  0  0  0  0
   -2.3720   -3.6440   35.2972 H   0  0  0  0  0  0  0  0  0  0  0  0
   -1.9622   -3.9260   36.7958 H   0  0  0  0  0  0  0  0  0  0  0  0
    1.5467   -8.2608   35.1401 H   0  0  0  0  0  0  0  0  0  0  0  0
    4.3111   -6.1573   34.5327 H   0  0  0  0  0  0  0  0  0  0  0  0
    3.3516   -5.3345   36.2206 H   0  0  0  0  0  0  0  0  0  0  0  0
    5.0182   -8.3649   35.7402 H   0  0  0  0  0  0  0  0  0  0  0  0
    6.1016   -7.4689   36.9233 H   0  0  0  0  0  0  0  0  0  0  0  0
    3.5859  -10.4174   40.5471 H   0  0  0  0  0  0  0  0  0  0  0  0
    2.1057   -8.2826   39.9614 H   0  0  0  0  0  0  0  0  0  0  0  0
    3.0098   -6.0324   38.3480 H   0  0  0  0  0  0  0  0  0  0  0  0
    2.0660   -6.5807   37.0785 H   0  0  0  0  0  0  0  0  0  0  0  0
    6.9360   -3.9794   37.2717 H   0  0  0  0  0  0  0  0  0  0  0  0
    8.2193   -2.3858   35.5759 H   0  0  0  0  0  0  0  0  0  0  0  0
    1.8510   -2.3774   32.9510 H   0  0  0  0  0  0  0  0  0  0  0  0
    5.7028   -2.0154   31.5816 H   0  0  0  0  0  0  0  0  0  0  0  0
    6.1995   -4.3697   32.3237 H   0  0  0  0  0  0  0  0  0  0  0  0
    0.4939   -3.5593   34.0980 H   0  0  0  0  0  0  0  0  0  0  0  0
  1  2  1  0
  2  3  2  0
  3  4  1  0
  4  5  2  0
  5  6  1  0
  6  7  2  0
  7  8  1  0
  8  9  1  0
  9 10  1  0
 10 11  1  0
 11 12  1  0
 12 13  1  0
 13 14  2  0
 14 15  1  0
 15 16  1  0
 16 17  1  0
 17 18  1  0
 18 19  2  0
 18 20  1  0
 20 21  1  0
 20 22  1  0
  7 23  1  0
 23 24  1  0
 24 25  2  0
 25 26  1  0
 26 27  2  0
 27 28  1  0
 28 29  2  0
 23 30  2  0
 30 31  1  0
 31  2  1  0
 31  5  1  0
 17  9  1  0
 29 24  1  0
 15 11  2  0
  1 32  1  0
  1 33  1  0
  6 34  1  0
  8 35  1  0
  9 36  1  0
 10 37  1  0
 10 38  1  0
 13 39  1  0
 14 40  1  0
 16 41  1  0
 16 42  1  0
 20 43  1  0
 21 44  1  0
 25 45  1  0
 27 46  1  0
 28 47  1  0
 30 48  1  0
M  END
>  <Energy>  (966) 
942.41153778092826

>  <compound_id>  (966) 
2650

>  <target_id>  (966) 
1

>  <reference_id>  (966) 
157

>  <inspiration_ids>  (966) 
[157, 140]

>  <energy_score>  (966) 
753.6659425480956

>  <distance_score>  (966) 
3.30990019603626

>  <path>  (966) 
/opt/xchem-fragalysis-2/maxwin/BulkDock/SCRATCH/505735/C2650-P157/C2650-P157.minimised.mol

>  <scratch_subdir>  (966) 
/opt/xchem-fragalysis-2/maxwin/BulkDock/SCRATCH/505735/C2650-P157

>  <fragmenstein_runtime>  (966) 
7.261551856994629

>  <fragmenstein_outcome>  (966) 
too moved

>  <fragmenstein_mode>  (966) 
expansion

>  <fragmenstein_error>  (966) 


$$$$
C2650-P140
     RDKit          3D

 48 52  0  0  0  0  0  0  0  0999 V2000
   -1.6138   -4.3139   32.5197 N   0  0  0  0  0  0  0  0  0  0  0  0
   -0.6751   -5.2707   32.7216 C   0  0  0  0  0  0  0  0  0  0  0  0
   -0.8315   -6.5716   32.8232 N   0  0  0  0  0  0  0  0  0  0  0  0
    0.3185   -7.0957   33.3795 N   0  0  0  0  0  0  0  0  0  0  0  0
    1.1295   -6.0933   33.6329 C   0  0  0  0  0  0  0  0  0  0  0  0
    2.2986   -5.9591   34.4277 C   0  0  0  0  0  0  0  0  0  0  0  0
    2.8390   -4.7351   34.6455 C   0  0  0  0  0  0  0  0  0  0  0  0
    3.7480   -4.4398   35.6655 N   0  0  0  0  0  0  0  0  0  0  0  0
    3.6939   -5.0403   37.2390 C   0  0  0  0  0  0  0  0  0  0  0  0
    1.8934   -5.2124   37.4959 C   0  0  0  0  0  0  0  0  0  0  0  0
    1.9867   -5.7963   38.8175 C   0  0  0  0  0  0  0  0  0  0  0  0
    0.9576   -6.1197   40.0703 S   0  0  0  0  0  0  0  0  0  0  0  0
    2.3094   -6.6383   41.0278 C   0  0  0  0  0  0  0  0  0  0  0  0
    3.5213   -6.5104   40.3595 C   0  0  0  0  0  0  0  0  0  0  0  0
    3.2915   -6.0806   39.0347 C   0  0  0  0  0  0  0  0  0  0  0  0
    4.2157   -5.5861   37.4906 C   0  0  0  0  0  0  0  0  0  0  0  0
    4.5703   -6.7332   36.8955 N   0  0  0  0  0  0  0  0  0  0  0  0
    5.0483   -8.0481   37.7788 C   0  0  0  0  0  0  0  0  0  0  0  0
    5.0661   -8.2660   38.9061 O   0  0  0  0  0  0  0  0  0  0  0  0
    5.6239   -9.0017   36.6978 C   0  0  0  0  0  0  0  0  0  0  0  0
    5.4911  -10.7379   37.2056 S   0  0  0  0  0  0  0  0  0  0  0  0
    4.8188   -8.8569   35.1150 Cl  0  0  0  0  0  0  0  0  0  0  0  0
    2.4072   -3.5906   33.7872 C   0  0  0  0  0  0  0  0  0  0  0  0
    3.0933   -2.2843   33.7075 C   0  0  0  0  0  0  0  0  0  0  0  0
    3.2957   -1.6207   32.4982 C   0  0  0  0  0  0  0  0  0  0  0  0
    3.9030   -0.4145   32.4099 N   0  0  0  0  0  0  0  0  0  0  0  0
    4.3208    0.1072   33.5813 C   0  0  0  0  0  0  0  0  0  0  0  0
    4.1437   -0.5506   34.7856 C   0  0  0  0  0  0  0  0  0  0  0  0
    3.5347   -1.7577   34.8802 N   0  0  0  0  0  0  0  0  0  0  0  0
    1.2577   -3.7227   33.0979 C   0  0  0  0  0  0  0  0  0  0  0  0
    0.6037   -4.9407   33.0974 N   0  0  0  0  0  0  0  0  0  0  0  0
   -1.3161   -3.3427   32.5376 H   0  0  0  0  0  0  0  0  0  0  0  0
   -2.3137   -4.3736   33.2764 H   0  0  0  0  0  0  0  0  0  0  0  0
    2.6117   -6.8243   34.9985 H   0  0  0  0  0  0  0  0  0  0  0  0
    3.8886   -3.4181   35.7251 H   0  0  0  0  0  0  0  0  0  0  0  0
    4.0007   -3.9286   37.8493 H   0  0  0  0  0  0  0  0  0  0  0  0
    1.4553   -4.2123   37.4529 H   0  0  0  0  0  0  0  0  0  0  0  0
    1.4514   -5.9005   36.7784 H   0  0  0  0  0  0  0  0  0  0  0  0
    2.1422   -6.9935   42.0354 H   0  0  0  0  0  0  0  0  0  0  0  0
    4.4776   -6.7596   40.8025 H   0  0  0  0  0  0  0  0  0  0  0  0
    4.9820   -5.7668   38.4348 H   0  0  0  0  0  0  0  0  0  0  0  0
    5.4094   -5.0211   37.4078 H   0  0  0  0  0  0  0  0  0  0  0  0
    6.6788   -8.7485   36.5557 H   0  0  0  0  0  0  0  0  0  0  0  0
    5.9399  -11.2497   36.0520 H   0  0  0  0  0  0  0  0  0  0  0  0
    2.9789   -2.0397   31.5490 H   0  0  0  0  0  0  0  0  0  0  0  0
    4.8083    1.0744   33.5271 H   0  0  0  0  0  0  0  0  0  0  0  0
    4.4894   -0.1160   35.7174 H   0  0  0  0  0  0  0  0  0  0  0  0
    0.7966   -2.9226   32.5321 H   0  0  0  0  0  0  0  0  0  0  0  0
  1  2  1  0
  2  3  2  0
  3  4  1  0
  4  5  2  0
  5  6  1  0
  6  7  2  0
  7  8  1  0
  8  9  1  0
  9 10  1  0
 10 11  1  0
 11 12  1  0
 12 13  1  0
 13 14  2  0
 14 15  1  0
 15 16  1  0
 16 17  1  0
 17 18  1  0
 18 19  2  0
 18 20  1  0
 20 21  1  0
 20 22  1  0
  7 23  1  0
 23 24  1  0
 24 25  2  0
 25 26  1  0
 26 27  2  0
 27 28  1  0
 28 29  2  0
 23 30  2  0
 30 31  1  0
 31  2  1  0
 31  5  1  0
 17  9  1  0
 29 24  1  0
 15 11  2  0
  1 32  1  0
  1 33  1  0
  6 34  1  0
  8 35  1  0
  9 36  1  0
 10 37  1  0
 10 38  1  0
 13 39  1  0
 14 40  1  0
 16 41  1  0
 16 42  1  0
 20 43  1  0
 21 44  1  0
 25 45  1  0
 27 46  1  0
 28 47  1  0
 30 48  1  0
M  END
>  <Energy>  (967) 
905.33232155750545

>  <compound_id>  (967) 
2650

>  <target_id>  (967) 
1

>  <reference_id>  (967) 
140

>  <inspiration_ids>  (967) 
[157, 140]

>  <energy_score>  (967) 
716.5867263246776

>  <distance_score>  (967) 
3.306578335300251

>  <path>  (967) 
/opt/xchem-fragalysis-2/maxwin/BulkDock/SCRATCH/505735/C2650-P140/C2650-P140.minimised.mol

>  <scratch_subdir>  (967) 
/opt/xchem-fragalysis-2/maxwin/BulkDock/SCRATCH/505735/C2650-P140

>  <fragmenstein_runtime>  (967) 
7.706496000289917

>  <fragmenstein_outcome>  (967) 
too moved

>  <fragmenstein_mode>  (967) 
expansion

>  <fragmenstein_error>  (967) 


$$$$
C4443-P157
     RDKit          3D

 43 46  0  0  0  0  0  0  0  0999 V2000
   -2.0450   -7.7017   34.1937 N   0  0  0  0  0  0  0  0  0  0  0  0
   -1.5796   -7.4108   32.9496 C   0  0  0  0  0  0  0  0  0  0  0  0
   -1.4707   -8.2255   31.9188 N   0  0  0  0  0  0  0  0  0  0  0  0
   -0.3898   -7.8000   31.1716 N   0  0  0  0  0  0  0  0  0  0  0  0
    0.0884   -6.7399   31.7851 C   0  0  0  0  0  0  0  0  0  0  0  0
    1.3810   -6.1886   31.9728 C   0  0  0  0  0  0  0  0  0  0  0  0
    1.4943   -5.2004   32.8730 C   0  0  0  0  0  0  0  0  0  0  0  0
    2.5551   -5.1141   33.9453 C   0  0  0  0  0  0  0  0  0  0  0  0
    1.9602   -5.3579   35.2864 N   0  0  0  0  0  0  0  0  0  0  0  0
    1.4539   -6.9237   35.6362 S   0  0  0  0  0  0  0  0  0  0  0  0
    0.0134   -6.8899   35.5469 O   0  0  0  0  0  0  0  0  0  0  0  0
    2.2613   -7.8585   34.8810 O   0  0  0  0  0  0  0  0  0  0  0  0
    1.8040   -7.1154   37.3452 C   0  0  0  0  0  0  0  0  0  0  0  0
    0.9391   -7.9288   38.0818 C   0  0  0  0  0  0  0  0  0  0  0  0
    1.1890   -8.1919   39.4202 C   0  0  0  0  0  0  0  0  0  0  0  0
    2.3179   -7.6464   40.0045 C   0  0  0  0  0  0  0  0  0  0  0  0
    2.6718   -7.9882   41.2717 O   0  0  0  0  0  0  0  0  0  0  0  0
    3.1473   -6.7738   39.2972 C   0  0  0  0  0  0  0  0  0  0  0  0
    2.8792   -6.4845   37.9559 C   0  0  0  0  0  0  0  0  0  0  0  0
    0.3721   -4.2938   33.0463 C   0  0  0  0  0  0  0  0  0  0  0  0
    0.7199   -2.8706   33.1364 C   0  0  0  0  0  0  0  0  0  0  0  0
    0.3223   -2.0331   34.1571 C   0  0  0  0  0  0  0  0  0  0  0  0
    0.9026   -0.8236   34.3571 N   0  0  0  0  0  0  0  0  0  0  0  0
    1.8703   -0.4693   33.4762 C   0  0  0  0  0  0  0  0  0  0  0  0
    2.2587   -1.2876   32.4379 C   0  0  0  0  0  0  0  0  0  0  0  0
    1.7064   -2.5028   32.2595 N   0  0  0  0  0  0  0  0  0  0  0  0
   -0.8007   -4.9464   33.1700 C   0  0  0  0  0  0  0  0  0  0  0  0
   -0.8603   -6.2635   32.6734 N   0  0  0  0  0  0  0  0  0  0  0  0
   -1.4658   -7.3070   34.9459 H   0  0  0  0  0  0  0  0  0  0  0  0
   -2.0480   -8.7199   34.3587 H   0  0  0  0  0  0  0  0  0  0  0  0
    2.2119   -6.8254   31.8419 H   0  0  0  0  0  0  0  0  0  0  0  0
    3.0344   -4.1297   33.9569 H   0  0  0  0  0  0  0  0  0  0  0  0
    3.3669   -5.8282   33.7702 H   0  0  0  0  0  0  0  0  0  0  0  0
    1.2180   -4.6965   35.5148 H   0  0  0  0  0  0  0  0  0  0  0  0
    0.0900   -8.4138   37.6018 H   0  0  0  0  0  0  0  0  0  0  0  0
    0.5304   -8.8655   39.9590 H   0  0  0  0  0  0  0  0  0  0  0  0
    1.9928   -8.5792   41.6373 H   0  0  0  0  0  0  0  0  0  0  0  0
    4.0186   -6.3452   39.7861 H   0  0  0  0  0  0  0  0  0  0  0  0
    3.5460   -5.8321   37.4004 H   0  0  0  0  0  0  0  0  0  0  0  0
   -0.4322   -2.3168   34.8823 H   0  0  0  0  0  0  0  0  0  0  0  0
    2.3165    0.5070   33.6297 H   0  0  0  0  0  0  0  0  0  0  0  0
    3.0228   -0.9928   31.7289 H   0  0  0  0  0  0  0  0  0  0  0  0
   -1.7101   -4.4962   33.5124 H   0  0  0  0  0  0  0  0  0  0  0  0
  1  2  1  0
  2  3  2  0
  3  4  1  0
  4  5  2  0
  5  6  1  0
  6  7  2  0
  7  8  1  0
  8  9  1  0
  9 10  1  0
 10 11  2  0
 10 12  2  0
 10 13  1  0
 13 14  2  0
 14 15  1  0
 15 16  2  0
 16 17  1  0
 16 18  1  0
 18 19  2  0
  7 20  1  0
 20 21  1  0
 21 22  2  0
 22 23  1  0
 23 24  2  0
 24 25  1  0
 25 26  2  0
 20 27  2  0
 27 28  1  0
 28  2  1  0
 28  5  1  0
 19 13  1  0
 26 21  1  0
  1 29  1  0
  1 30  1  0
  6 31  1  0
  8 32  1  0
  8 33  1  0
  9 34  1  0
 14 35  1  0
 15 36  1  0
 17 37  1  0
 18 38  1  0
 19 39  1  0
 22 40  1  0
 24 41  1  0
 25 42  1  0
 27 43  1  0
M  END
>  <Energy>  (968) 
82.460844608072946

>  <compound_id>  (968) 
4443

>  <target_id>  (968) 
1

>  <reference_id>  (968) 
157

>  <inspiration_ids>  (968) 
[157, 145]

>  <energy_score>  (968) 
-25.476127000806116

>  <distance_score>  (968) 
1.6196709992514444

>  <path>  (968) 
/opt/xchem-fragalysis-2/maxwin/BulkDock/SCRATCH/505735/C4443-P157/C4443-P157.minimised.mol

>  <scratch_subdir>  (968) 
/opt/xchem-fragalysis-2/maxwin/BulkDock/SCRATCH/505735/C4443-P157

>  <fragmenstein_runtime>  (968) 
6.356804132461548

>  <fragmenstein_outcome>  (968) 
too moved

>  <fragmenstein_mode>  (968) 
expansion

>  <fragmenstein_error>  (968) 


$$$$
C4443-P145
     RDKit          3D

 43 46  0  0  0  0  0  0  0  0999 V2000
   -1.9848   -8.1023   34.9262 N   0  0  0  0  0  0  0  0  0  0  0  0
   -1.5003   -7.5571   33.7809 C   0  0  0  0  0  0  0  0  0  0  0  0
   -1.5465   -8.0415   32.5585 N   0  0  0  0  0  0  0  0  0  0  0  0
   -0.7952   -7.2235   31.7389 N   0  0  0  0  0  0  0  0  0  0  0  0
   -0.2991   -6.2667   32.4931 C   0  0  0  0  0  0  0  0  0  0  0  0
    0.7492   -5.3274   32.3040 C   0  0  0  0  0  0  0  0  0  0  0  0
    1.1492   -4.6228   33.3861 C   0  0  0  0  0  0  0  0  0  0  0  0
    2.6033   -4.3476   33.7006 C   0  0  0  0  0  0  0  0  0  0  0  0
    2.9124   -4.8947   35.0447 N   0  0  0  0  0  0  0  0  0  0  0  0
    3.0798   -6.5410   35.3062 S   0  0  0  0  0  0  0  0  0  0  0  0
    2.0575   -7.2605   34.5702 O   0  0  0  0  0  0  0  0  0  0  0  0
    4.4724   -6.8782   35.1372 O   0  0  0  0  0  0  0  0  0  0  0  0
    2.6875   -6.7344   37.0263 C   0  0  0  0  0  0  0  0  0  0  0  0
    1.6604   -7.6108   37.4009 C   0  0  0  0  0  0  0  0  0  0  0  0
    1.4415   -7.8906   38.7489 C   0  0  0  0  0  0  0  0  0  0  0  0
    2.2390   -7.2753   39.7067 C   0  0  0  0  0  0  0  0  0  0  0  0
    2.0966   -7.5678   41.0293 O   0  0  0  0  0  0  0  0  0  0  0  0
    3.2303   -6.3656   39.3419 C   0  0  0  0  0  0  0  0  0  0  0  0
    3.4675   -6.0973   37.9921 C   0  0  0  0  0  0  0  0  0  0  0  0
    0.2211   -4.3832   34.5112 C   0  0  0  0  0  0  0  0  0  0  0  0
    0.2820   -3.1189   35.2784 C   0  0  0  0  0  0  0  0  0  0  0  0
   -0.1734   -2.9499   36.5764 C   0  0  0  0  0  0  0  0  0  0  0  0
   -0.0300   -1.7853   37.2575 N   0  0  0  0  0  0  0  0  0  0  0  0
    0.5646   -0.7758   36.5832 C   0  0  0  0  0  0  0  0  0  0  0  0
    1.0156   -0.9241   35.2895 C   0  0  0  0  0  0  0  0  0  0  0  0
    0.8952   -2.0920   34.6246 N   0  0  0  0  0  0  0  0  0  0  0  0
   -0.6311   -5.3948   34.7611 C   0  0  0  0  0  0  0  0  0  0  0  0
   -0.8129   -6.3666   33.7745 N   0  0  0  0  0  0  0  0  0  0  0  0
   -1.3761   -7.9806   35.7311 H   0  0  0  0  0  0  0  0  0  0  0  0
   -2.1060   -9.1199   34.8068 H   0  0  0  0  0  0  0  0  0  0  0  0
    1.3624   -5.4670   31.4310 H   0  0  0  0  0  0  0  0  0  0  0  0
    2.8283   -3.2777   33.6884 H   0  0  0  0  0  0  0  0  0  0  0  0
    3.2802   -4.7937   32.9714 H   0  0  0  0  0  0  0  0  0  0  0  0
    2.6406   -4.3145   35.8356 H   0  0  0  0  0  0  0  0  0  0  0  0
    1.0630   -8.1243   36.6540 H   0  0  0  0  0  0  0  0  0  0  0  0
    0.6812   -8.6136   39.0332 H   0  0  0  0  0  0  0  0  0  0  0  0
    1.5417   -8.3631   41.1165 H   0  0  0  0  0  0  0  0  0  0  0  0
    3.8452   -5.9027   40.1101 H   0  0  0  0  0  0  0  0  0  0  0  0
    4.2861   -5.4400   37.7084 H   0  0  0  0  0  0  0  0  0  0  0  0
   -0.6532   -3.7441   37.1362 H   0  0  0  0  0  0  0  0  0  0  0  0
    0.6640    0.1619   37.1184 H   0  0  0  0  0  0  0  0  0  0  0  0
    1.4863   -0.1095   34.7516 H   0  0  0  0  0  0  0  0  0  0  0  0
   -1.2936   -5.4502   35.6117 H   0  0  0  0  0  0  0  0  0  0  0  0
  1  2  1  0
  2  3  2  0
  3  4  1  0
  4  5  2  0
  5  6  1  0
  6  7  2  0
  7  8  1  0
  8  9  1  0
  9 10  1  0
 10 11  2  0
 10 12  2  0
 10 13  1  0
 13 14  2  0
 14 15  1  0
 15 16  2  0
 16 17  1  0
 16 18  1  0
 18 19  2  0
  7 20  1  0
 20 21  1  0
 21 22  2  0
 22 23  1  0
 23 24  2  0
 24 25  1  0
 25 26  2  0
 20 27  2  0
 27 28  1  0
 28  2  1  0
 28  5  1  0
 19 13  1  0
 26 21  1  0
  1 29  1  0
  1 30  1  0
  6 31  1  0
  8 32  1  0
  8 33  1  0
  9 34  1  0
 14 35  1  0
 15 36  1  0
 17 37  1  0
 18 38  1  0
 19 39  1  0
 22 40  1  0
 24 41  1  0
 25 42  1  0
 27 43  1  0
M  END
>  <Energy>  (969) 
56.831989809251965

>  <compound_id>  (969) 
4443

>  <target_id>  (969) 
1

>  <reference_id>  (969) 
145

>  <inspiration_ids>  (969) 
[157, 145]

>  <energy_score>  (969) 
-39.97502473765755

>  <distance_score>  (969) 
2.54006795577506

>  <path>  (969) 
/opt/xchem-fragalysis-2/maxwin/BulkDock/SCRATCH/505735/C4443-P145/C4443-P145.minimised.mol

>  <scratch_subdir>  (969) 
/opt/xchem-fragalysis-2/maxwin/BulkDock/SCRATCH/505735/C4443-P145

>  <fragmenstein_runtime>  (969) 
12.094687461853027

>  <fragmenstein_outcome>  (969) 
too moved

>  <fragmenstein_mode>  (969) 
expansion

>  <fragmenstein_error>  (969) 


$$$$
C4443-P157
     RDKit          3D

 43 46  0  0  0  0  0  0  0  0999 V2000
   -1.4209   -7.9666   35.2528 N   0  0  0  0  0  0  0  0  0  0  0  0
   -1.2780   -7.7157   33.9295 C   0  0  0  0  0  0  0  0  0  0  0  0
   -1.7130   -8.4549   32.9310 N   0  0  0  0  0  0  0  0  0  0  0  0
   -1.3586   -7.8779   31.7461 N   0  0  0  0  0  0  0  0  0  0  0  0
   -0.7488   -6.7606   32.0476 C   0  0  0  0  0  0  0  0  0  0  0  0
   -0.3258   -5.6935   31.2423 C   0  0  0  0  0  0  0  0  0  0  0  0
    0.1022   -4.5614   31.8326 C   0  0  0  0  0  0  0  0  0  0  0  0
    0.1422   -3.3107   31.0232 C   0  0  0  0  0  0  0  0  0  0  0  0
    1.3949   -3.3387   30.3103 N   0  0  0  0  0  0  0  0  0  0  0  0
    1.3596   -2.7142   28.7807 S   0  0  0  0  0  0  0  0  0  0  0  0
    2.6895   -2.2045   28.5327 O   0  0  0  0  0  0  0  0  0  0  0  0
    0.1890   -1.8783   28.6504 O   0  0  0  0  0  0  0  0  0  0  0  0
    1.1403   -4.2072   27.7920 C   0  0  0  0  0  0  0  0  0  0  0  0
    2.3578   -4.7186   27.1365 C   0  0  0  0  0  0  0  0  0  0  0  0
    2.3431   -5.2823   25.7516 C   0  0  0  0  0  0  0  0  0  0  0  0
    0.9519   -5.3497   24.7573 C   0  0  0  0  0  0  0  0  0  0  0  0
    0.7614   -4.9303   23.4594 O   0  0  0  0  0  0  0  0  0  0  0  0
   -0.4419   -5.1692   25.5517 C   0  0  0  0  0  0  0  0  0  0  0  0
   -0.2340   -4.4724   27.2063 C   0  0  0  0  0  0  0  0  0  0  0  0
    0.4120   -4.4939   33.2732 C   0  0  0  0  0  0  0  0  0  0  0  0
    1.2314   -3.4086   33.8549 C   0  0  0  0  0  0  0  0  0  0  0  0
    0.8922   -2.7343   35.0221 C   0  0  0  0  0  0  0  0  0  0  0  0
    1.6317   -1.7121   35.5195 N   0  0  0  0  0  0  0  0  0  0  0  0
    2.7253   -1.3775   34.7984 C   0  0  0  0  0  0  0  0  0  0  0  0
    3.0701   -2.0358   33.6329 C   0  0  0  0  0  0  0  0  0  0  0  0
    2.3358   -3.0587   33.1357 N   0  0  0  0  0  0  0  0  0  0  0  0
   -0.0271   -5.5191   34.0357 C   0  0  0  0  0  0  0  0  0  0  0  0
   -0.6490   -6.6056   33.4203 N   0  0  0  0  0  0  0  0  0  0  0  0
   -1.6053   -8.9809   35.3951 H   0  0  0  0  0  0  0  0  0  0  0  0
   -0.6559   -7.7267   35.8741 H   0  0  0  0  0  0  0  0  0  0  0  0
   -0.4995   -5.7555   30.1745 H   0  0  0  0  0  0  0  0  0  0  0  0
   -0.7270   -3.3154   30.3540 H   0  0  0  0  0  0  0  0  0  0  0  0
    0.0567   -2.4019   31.6271 H   0  0  0  0  0  0  0  0  0  0  0  0
    2.2203   -3.0915   30.8616 H   0  0  0  0  0  0  0  0  0  0  0  0
    3.3325   -4.5027   27.5781 H   0  0  0  0  0  0  0  0  0  0  0  0
    3.3547   -5.4742   25.3874 H   0  0  0  0  0  0  0  0  0  0  0  0
    0.7732   -5.6629   22.8254 H   0  0  0  0  0  0  0  0  0  0  0  0
   -1.3893   -5.3741   25.0483 H   0  0  0  0  0  0  0  0  0  0  0  0
   -1.0762   -4.1075   27.7756 H   0  0  0  0  0  0  0  0  0  0  0  0
    0.0013   -2.9790   35.5911 H   0  0  0  0  0  0  0  0  0  0  0  0
    3.3205   -0.5586   35.1871 H   0  0  0  0  0  0  0  0  0  0  0  0
    3.9501   -1.7554   33.0644 H   0  0  0  0  0  0  0  0  0  0  0  0
    0.0992   -5.5800   35.1093 H   0  0  0  0  0  0  0  0  0  0  0  0
  1  2  1  0
  2  3  2  0
  3  4  1  0
  4  5  2  0
  5  6  1  0
  6  7  2  0
  7  8  1  0
  8  9  1  0
  9 10  1  0
 10 11  2  0
 10 12  2  0
 10 13  1  0
 13 14  2  0
 14 15  1  0
 15 16  2  0
 16 17  1  0
 16 18  1  0
 18 19  2  0
  7 20  1  0
 20 21  1  0
 21 22  2  0
 22 23  1  0
 23 24  2  0
 24 25  1  0
 25 26  2  0
 20 27  2  0
 27 28  1  0
 28  2  1  0
 28  5  1  0
 19 13  1  0
 26 21  1  0
  1 29  1  0
  1 30  1  0
  6 31  1  0
  8 32  1  0
  8 33  1  0
  9 34  1  0
 14 35  1  0
 15 36  1  0
 17 37  1  0
 18 38  1  0
 19 39  1  0
 22 40  1  0
 24 41  1  0
 25 42  1  0
 27 43  1  0
M  END
>  <Energy>  (970) 
168.36704823368072

>  <compound_id>  (970) 
4443

>  <target_id>  (970) 
1

>  <reference_id>  (970) 
157

>  <inspiration_ids>  (970) 
[157, 147]

>  <energy_score>  (970) 
76.38734665847494

>  <distance_score>  (970) 
1.4540717211964664

>  <path>  (970) 
/opt/xchem-fragalysis-2/maxwin/BulkDock/SCRATCH/505735/C4443-P157/C4443-P157.minimised.mol

>  <scratch_subdir>  (970) 
/opt/xchem-fragalysis-2/maxwin/BulkDock/SCRATCH/505735/C4443-P157

>  <fragmenstein_runtime>  (970) 
15.851961612701416

>  <fragmenstein_outcome>  (970) 
too moved

>  <fragmenstein_mode>  (970) 
expansion

>  <fragmenstein_error>  (970) 


$$$$
C4443-P147
     RDKit          3D

 43 46  0  0  0  0  0  0  0  0999 V2000
   -1.5143   -7.8749   35.1738 N   0  0  0  0  0  0  0  0  0  0  0  0
   -1.3115   -7.6181   33.8613 C   0  0  0  0  0  0  0  0  0  0  0  0
   -1.6974   -8.3605   32.8453 N   0  0  0  0  0  0  0  0  0  0  0  0
   -1.3272   -7.7553   31.6789 N   0  0  0  0  0  0  0  0  0  0  0  0
   -0.7497   -6.6285   32.0123 C   0  0  0  0  0  0  0  0  0  0  0  0
   -0.3371   -5.5324   31.2421 C   0  0  0  0  0  0  0  0  0  0  0  0
    0.0984   -4.4221   31.8677 C   0  0  0  0  0  0  0  0  0  0  0  0
    0.1595   -3.1484   31.0994 C   0  0  0  0  0  0  0  0  0  0  0  0
    1.3992   -3.1961   30.3672 N   0  0  0  0  0  0  0  0  0  0  0  0
    1.3454   -2.6210   28.8223 S   0  0  0  0  0  0  0  0  0  0  0  0
    2.6756   -2.1328   28.5368 O   0  0  0  0  0  0  0  0  0  0  0  0
    0.1784   -1.7816   28.6820 O   0  0  0  0  0  0  0  0  0  0  0  0
    1.0927   -4.1468   27.8760 C   0  0  0  0  0  0  0  0  0  0  0  0
    2.3180   -4.6359   27.1522 C   0  0  0  0  0  0  0  0  0  0  0  0
    2.2746   -5.1736   25.7348 C   0  0  0  0  0  0  0  0  0  0  0  0
    0.8581   -5.2414   24.8433 C   0  0  0  0  0  0  0  0  0  0  0  0
    0.6173   -4.9419   23.5330 O   0  0  0  0  0  0  0  0  0  0  0  0
   -0.5380   -5.0609   25.7204 C   0  0  0  0  0  0  0  0  0  0  0  0
   -0.3176   -4.4065   27.3390 C   0  0  0  0  0  0  0  0  0  0  0  0
    0.4096   -4.3990   33.3079 C   0  0  0  0  0  0  0  0  0  0  0  0
    1.2460   -3.3442   33.9192 C   0  0  0  0  0  0  0  0  0  0  0  0
    0.9109   -2.6865   35.0967 C   0  0  0  0  0  0  0  0  0  0  0  0
    1.6671   -1.6899   35.6192 N   0  0  0  0  0  0  0  0  0  0  0  0
    2.7740   -1.3648   34.9143 C   0  0  0  0  0  0  0  0  0  0  0  0
    3.1152   -2.0076   33.7391 C   0  0  0  0  0  0  0  0  0  0  0  0
    2.3633   -3.0041   33.2156 N   0  0  0  0  0  0  0  0  0  0  0  0
   -0.0455   -5.4381   34.0396 C   0  0  0  0  0  0  0  0  0  0  0  0
   -0.6682   -6.5025   33.3885 N   0  0  0  0  0  0  0  0  0  0  0  0
   -1.6921   -8.8831   35.2917 H   0  0  0  0  0  0  0  0  0  0  0  0
   -0.8048   -7.5808   35.8377 H   0  0  0  0  0  0  0  0  0  0  0  0
   -0.5117   -5.5591   30.1740 H   0  0  0  0  0  0  0  0  0  0  0  0
   -0.7234   -3.1076   30.4500 H   0  0  0  0  0  0  0  0  0  0  0  0
    0.1127   -2.2543   31.7286 H   0  0  0  0  0  0  0  0  0  0  0  0
    2.2399   -2.9576   30.8980 H   0  0  0  0  0  0  0  0  0  0  0  0
    3.3026   -4.4103   27.5670 H   0  0  0  0  0  0  0  0  0  0  0  0
    3.2683   -5.3611   25.3348 H   0  0  0  0  0  0  0  0  0  0  0  0
    0.6946   -5.7123   22.9559 H   0  0  0  0  0  0  0  0  0  0  0  0
   -1.4947   -5.3330   25.2728 H   0  0  0  0  0  0  0  0  0  0  0  0
   -1.1572   -4.0369   27.9117 H   0  0  0  0  0  0  0  0  0  0  0  0
    0.0108   -2.9237   35.6541 H   0  0  0  0  0  0  0  0  0  0  0  0
    3.3832   -0.5668   35.3244 H   0  0  0  0  0  0  0  0  0  0  0  0
    4.0064   -1.7355   33.1842 H   0  0  0  0  0  0  0  0  0  0  0  0
    0.0767   -5.5275   35.1114 H   0  0  0  0  0  0  0  0  0  0  0  0
  1  2  1  0
  2  3  2  0
  3  4  1  0
  4  5  2  0
  5  6  1  0
  6  7  2  0
  7  8  1  0
  8  9  1  0
  9 10  1  0
 10 11  2  0
 10 12  2  0
 10 13  1  0
 13 14  2  0
 14 15  1  0
 15 16  2  0
 16 17  1  0
 16 18  1  0
 18 19  2  0
  7 20  1  0
 20 21  1  0
 21 22  2  0
 22 23  1  0
 23 24  2  0
 24 25  1  0
 25 26  2  0
 20 27  2  0
 27 28  1  0
 28  2  1  0
 28  5  1  0
 19 13  1  0
 26 21  1  0
  1 29  1  0
  1 30  1  0
  6 31  1  0
  8 32  1  0
  8 33  1  0
  9 34  1  0
 14 35  1  0
 15 36  1  0
 17 37  1  0
 18 38  1  0
 19 39  1  0
 22 40  1  0
 24 41  1  0
 25 42  1  0
 27 43  1  0
M  END
>  <Energy>  (971) 
159.92605611488727

>  <compound_id>  (971) 
4443

>  <target_id>  (971) 
1

>  <reference_id>  (971) 
147

>  <inspiration_ids>  (971) 
[157, 147]

>  <energy_score>  (971) 
67.94635453967794

>  <distance_score>  (971) 
1.4932131666088615

>  <path>  (971) 
/opt/xchem-fragalysis-2/maxwin/BulkDock/SCRATCH/505735/C4443-P147/C4443-P147.minimised.mol

>  <scratch_subdir>  (971) 
/opt/xchem-fragalysis-2/maxwin/BulkDock/SCRATCH/505735/C4443-P147

>  <fragmenstein_runtime>  (971) 
11.080144882202148

>  <fragmenstein_outcome>  (971) 
too moved

>  <fragmenstein_mode>  (971) 
expansion

>  <fragmenstein_error>  (971) 


$$$$
C4461-P157
     RDKit          3D

 44 48  0  0  0  0  0  0  0  0999 V2000
   -2.1646   -7.7347   34.9286 N   0  0  0  0  0  0  0  0  0  0  0  0
   -1.4739   -7.3078   33.8365 C   0  0  0  0  0  0  0  0  0  0  0  0
   -1.2856   -7.9538   32.7026 N   0  0  0  0  0  0  0  0  0  0  0  0
   -0.0663   -7.5538   32.1933 N   0  0  0  0  0  0  0  0  0  0  0  0
    0.4223   -6.6757   33.0400 C   0  0  0  0  0  0  0  0  0  0  0  0
    1.7310   -6.2657   33.4040 C   0  0  0  0  0  0  0  0  0  0  0  0
    1.8126   -5.4242   34.4387 C   0  0  0  0  0  0  0  0  0  0  0  0
    0.6995   -4.5122   34.7263 C   0  0  0  0  0  0  0  0  0  0  0  0
   -0.5201   -5.0576   34.6262 C   0  0  0  0  0  0  0  0  0  0  0  0
   -0.6034   -6.2413   33.8772 N   0  0  0  0  0  0  0  0  0  0  0  0
    1.2896   -3.2907   35.2154 C   0  0  0  0  0  0  0  0  0  0  0  0
    0.8088   -2.0456   35.3679 C   0  0  0  0  0  0  0  0  0  0  0  0
    1.6751   -1.0350   35.7589 N   0  0  0  0  0  0  0  0  0  0  0  0
    3.0215   -1.2989   35.9699 C   0  0  0  0  0  0  0  0  0  0  0  0
    3.5147   -2.5482   35.8284 C   0  0  0  0  0  0  0  0  0  0  0  0
    2.6774   -3.5745   35.4178 N   0  0  0  0  0  0  0  0  0  0  0  0
    2.8363   -5.0257   35.4651 C   0  0  0  0  0  0  0  0  0  0  0  0
    4.1377   -5.6827   35.3593 N   0  0  0  0  0  0  0  0  0  0  0  0
    4.0180   -7.2315   36.0539 S   0  0  0  0  0  0  0  0  0  0  0  0
    3.3967   -7.0899   37.3478 O   0  0  0  0  0  0  0  0  0  0  0  0
    3.5076   -8.1584   35.0714 O   0  0  0  0  0  0  0  0  0  0  0  0
    5.6322   -7.5680   36.3333 N   0  0  0  0  0  0  0  0  0  0  0  0
    5.8539   -8.6278   37.3655 C   0  0  0  0  0  0  0  0  0  0  0  0
    7.1480   -9.3050   36.9523 C   0  0  0  0  0  0  0  0  0  0  0  0
    7.0564   -9.2644   35.4414 C   0  0  0  0  0  0  0  0  0  0  0  0
    6.5064   -7.8699   35.1746 C   0  0  0  0  0  0  0  0  0  0  0  0
   -2.2144   -8.7699   34.9049 H   0  0  0  0  0  0  0  0  0  0  0  0
   -1.7203   -7.5105   35.8184 H   0  0  0  0  0  0  0  0  0  0  0  0
    2.5894   -6.8002   33.0619 H   0  0  0  0  0  0  0  0  0  0  0  0
   -1.4246   -4.6296   35.0253 H   0  0  0  0  0  0  0  0  0  0  0  0
   -0.2161   -1.7540   35.1735 H   0  0  0  0  0  0  0  0  0  0  0  0
    1.3402   -0.0799   35.7984 H   0  0  0  0  0  0  0  0  0  0  0  0
    3.6233   -0.4491   36.2704 H   0  0  0  0  0  0  0  0  0  0  0  0
    4.5510   -2.8017   36.0092 H   0  0  0  0  0  0  0  0  0  0  0  0
    2.4298   -5.2715   36.4570 H   0  0  0  0  0  0  0  0  0  0  0  0
    4.7757   -5.1554   35.9510 H   0  0  0  0  0  0  0  0  0  0  0  0
    5.0372   -9.3593   37.3580 H   0  0  0  0  0  0  0  0  0  0  0  0
    5.9323   -8.1834   38.3615 H   0  0  0  0  0  0  0  0  0  0  0  0
    8.0116   -8.7235   37.2964 H   0  0  0  0  0  0  0  0  0  0  0  0
    7.2355  -10.3208   37.3473 H   0  0  0  0  0  0  0  0  0  0  0  0
    8.0196   -9.4333   34.9521 H   0  0  0  0  0  0  0  0  0  0  0  0
    6.3503  -10.0239   35.0840 H   0  0  0  0  0  0  0  0  0  0  0  0
    7.3151   -7.1304   35.1613 H   0  0  0  0  0  0  0  0  0  0  0  0
    5.9952   -7.8194   34.2138 H   0  0  0  0  0  0  0  0  0  0  0  0
  1  2  1  0
  2  3  2  0
  3  4  1  0
  4  5  2  0
  5  6  1  0
  6  7  2  0
  7  8  1  0
  8  9  2  0
  9 10  1  0
  8 11  1  0
 11 12  2  0
 12 13  1  0
 13 14  1  0
 14 15  2  0
 15 16  1  0
 16 17  1  0
 17 18  1  0
 18 19  1  0
 19 20  2  0
 19 21  2  0
 19 22  1  0
 22 23  1  0
 23 24  1  0
 24 25  1  0
 25 26  1  0
 10  2  1  0
 16 11  1  0
 26 22  1  0
 10  5  1  0
 17  7  1  0
  1 27  1  0
  1 28  1  0
  6 29  1  0
  9 30  1  0
 12 31  1  0
 13 32  1  0
 14 33  1  0
 15 34  1  0
 17 35  1  0
 18 36  1  0
 23 37  1  0
 23 38  1  0
 24 39  1  0
 24 40  1  0
 25 41  1  0
 25 42  1  0
 26 43  1  0
 26 44  1  0
M  END
>  <Energy>  (972) 
-113.89156547615126

>  <compound_id>  (972) 
4461

>  <target_id>  (972) 
1

>  <reference_id>  (972) 
157

>  <inspiration_ids>  (972) 
[157, 148]

>  <energy_score>  (972) 
-35.69041296108388

>  <distance_score>  (972) 
2.468020699151075

>  <path>  (972) 
/opt/xchem-fragalysis-2/maxwin/BulkDock/SCRATCH/505735/C4461-P157/C4461-P157.minimised.mol

>  <scratch_subdir>  (972) 
/opt/xchem-fragalysis-2/maxwin/BulkDock/SCRATCH/505735/C4461-P157

>  <fragmenstein_runtime>  (972) 
3.990744113922119

>  <fragmenstein_outcome>  (972) 
too moved

>  <fragmenstein_mode>  (972) 
expansion

>  <fragmenstein_error>  (972) 


$$$$
C4461-P148
     RDKit          3D

 44 48  0  0  0  0  0  0  0  0999 V2000
   -2.2138   -7.5199   34.7356 N   0  0  0  0  0  0  0  0  0  0  0  0
   -1.7610   -7.2410   33.4850 C   0  0  0  0  0  0  0  0  0  0  0  0
   -1.7355   -8.0578   32.4476 N   0  0  0  0  0  0  0  0  0  0  0  0
   -0.6016   -7.7600   31.7205 N   0  0  0  0  0  0  0  0  0  0  0  0
   -0.0121   -6.7837   32.3741 C   0  0  0  0  0  0  0  0  0  0  0  0
    1.3275   -6.4469   32.6686 C   0  0  0  0  0  0  0  0  0  0  0  0
    1.5239   -5.6016   33.6806 C   0  0  0  0  0  0  0  0  0  0  0  0
    0.5791   -4.4928   33.7456 C   0  0  0  0  0  0  0  0  0  0  0  0
   -0.6997   -4.8862   33.7403 C   0  0  0  0  0  0  0  0  0  0  0  0
   -0.9365   -6.1690   33.2064 N   0  0  0  0  0  0  0  0  0  0  0  0
    1.3911   -3.3222   33.9474 C   0  0  0  0  0  0  0  0  0  0  0  0
    1.1671   -2.0175   33.7300 C   0  0  0  0  0  0  0  0  0  0  0  0
    2.2282   -1.1306   33.8337 N   0  0  0  0  0  0  0  0  0  0  0  0
    3.5122   -1.5904   34.0946 C   0  0  0  0  0  0  0  0  0  0  0  0
    3.7489   -2.8999   34.3279 C   0  0  0  0  0  0  0  0  0  0  0  0
    2.7044   -3.8061   34.2620 N   0  0  0  0  0  0  0  0  0  0  0  0
    2.5710   -5.1969   34.6877 C   0  0  0  0  0  0  0  0  0  0  0  0
    3.6671   -6.1258   34.9058 N   0  0  0  0  0  0  0  0  0  0  0  0
    3.1603   -7.5178   35.7080 S   0  0  0  0  0  0  0  0  0  0  0  0
    2.0481   -7.1780   36.5607 O   0  0  0  0  0  0  0  0  0  0  0  0
    3.0195   -8.5374   34.6969 O   0  0  0  0  0  0  0  0  0  0  0  0
    4.4630   -7.8895   36.6810 N   0  0  0  0  0  0  0  0  0  0  0  0
    4.1300   -8.4559   38.0232 C   0  0  0  0  0  0  0  0  0  0  0  0
    5.3609   -9.2549   38.4191 C   0  0  0  0  0  0  0  0  0  0  0  0
    5.8167   -9.8204   37.0903 C   0  0  0  0  0  0  0  0  0  0  0  0
    5.6034   -8.6573   36.1253 C   0  0  0  0  0  0  0  0  0  0  0  0
   -2.2220   -8.5386   34.8812 H   0  0  0  0  0  0  0  0  0  0  0  0
   -1.6832   -7.0900   35.4935 H   0  0  0  0  0  0  0  0  0  0  0  0
    2.1127   -7.0472   32.3361 H   0  0  0  0  0  0  0  0  0  0  0  0
   -1.5205   -4.2634   34.0413 H   0  0  0  0  0  0  0  0  0  0  0  0
    0.2191   -1.5983   33.4162 H   0  0  0  0  0  0  0  0  0  0  0  0
    2.0955   -0.1657   33.5537 H   0  0  0  0  0  0  0  0  0  0  0  0
    4.2837   -0.8297   34.1282 H   0  0  0  0  0  0  0  0  0  0  0  0
    4.7213   -3.3020   34.5840 H   0  0  0  0  0  0  0  0  0  0  0  0
    2.0963   -5.0955   35.6766 H   0  0  0  0  0  0  0  0  0  0  0  0
    4.2650   -6.2682   34.1061 H   0  0  0  0  0  0  0  0  0  0  0  0
    3.2618   -9.1195   37.9616 H   0  0  0  0  0  0  0  0  0  0  0  0
    3.9257   -7.6551   38.7393 H   0  0  0  0  0  0  0  0  0  0  0  0
    6.1300   -8.5909   38.8314 H   0  0  0  0  0  0  0  0  0  0  0  0
    5.1391  -10.0288   39.1589 H   0  0  0  0  0  0  0  0  0  0  0  0
    6.8556  -10.1612   37.1070 H   0  0  0  0  0  0  0  0  0  0  0  0
    5.1837  -10.6683   36.8037 H   0  0  0  0  0  0  0  0  0  0  0  0
    6.4797   -7.9996   36.1132 H   0  0  0  0  0  0  0  0  0  0  0  0
    5.4380   -9.0172   35.1069 H   0  0  0  0  0  0  0  0  0  0  0  0
  1  2  1  0
  2  3  2  0
  3  4  1  0
  4  5  2  0
  5  6  1  0
  6  7  2  0
  7  8  1  0
  8  9  2  0
  9 10  1  0
  8 11  1  0
 11 12  2  0
 12 13  1  0
 13 14  1  0
 14 15  2  0
 15 16  1  0
 16 17  1  0
 17 18  1  0
 18 19  1  0
 19 20  2  0
 19 21  2  0
 19 22  1  0
 22 23  1  0
 23 24  1  0
 24 25  1  0
 25 26  1  0
 10  2  1  0
 16 11  1  0
 26 22  1  0
 10  5  1  0
 17  7  1  0
  1 27  1  0
  1 28  1  0
  6 29  1  0
  9 30  1  0
 12 31  1  0
 13 32  1  0
 14 33  1  0
 15 34  1  0
 17 35  1  0
 18 36  1  0
 23 37  1  0
 23 38  1  0
 24 39  1  0
 24 40  1  0
 25 41  1  0
 25 42  1  0
 26 43  1  0
 26 44  1  0
M  END
>  <Energy>  (973) 
-83.823394579390978

>  <compound_id>  (973) 
4461

>  <target_id>  (973) 
1

>  <reference_id>  (973) 
148

>  <inspiration_ids>  (973) 
[157, 148]

>  <energy_score>  (973) 
-4.574987385406658

>  <distance_score>  (973) 
1.6274907977939304

>  <path>  (973) 
/opt/xchem-fragalysis-2/maxwin/BulkDock/SCRATCH/505735/C4461-P148/C4461-P148.minimised.mol

>  <scratch_subdir>  (973) 
/opt/xchem-fragalysis-2/maxwin/BulkDock/SCRATCH/505735/C4461-P148

>  <fragmenstein_runtime>  (973) 
3.9422495365142822

>  <fragmenstein_outcome>  (973) 
too moved

>  <fragmenstein_mode>  (973) 
expansion

>  <fragmenstein_error>  (973) 


$$$$
C4446-P157
     RDKit          3D

 45 48  0  0  0  0  0  0  0  0999 V2000
    0.7937   -5.6529   34.6989 C   0  0  0  0  0  0  0  0  0  0  0  0
    0.5082   -5.7067   33.2219 C   0  0  0  0  0  0  0  0  0  0  0  0
    1.0541   -4.8550   32.3008 C   0  0  0  0  0  0  0  0  0  0  0  0
    1.8751   -3.6932   32.7190 C   0  0  0  0  0  0  0  0  0  0  0  0
    1.3307   -2.6317   33.4400 C   0  0  0  0  0  0  0  0  0  0  0  0
    2.0320   -1.5122   33.7417 N   0  0  0  0  0  0  0  0  0  0  0  0
    3.2959   -1.4782   33.2674 C   0  0  0  0  0  0  0  0  0  0  0  0
    3.8404   -2.5201   32.5373 C   0  0  0  0  0  0  0  0  0  0  0  0
    3.1504   -3.6514   32.2490 N   0  0  0  0  0  0  0  0  0  0  0  0
    0.7757   -5.0891   30.8583 C   0  0  0  0  0  0  0  0  0  0  0  0
    1.4011   -4.2056   29.7944 C   0  0  0  0  0  0  0  0  0  0  0  0
    2.8069   -4.6249   29.6777 N   0  0  0  0  0  0  0  0  0  0  0  0
    3.6515   -4.0646   28.3328 S   0  0  0  0  0  0  0  0  0  0  0  0
    5.0318   -4.4671   28.5041 O   0  0  0  0  0  0  0  0  0  0  0  0
    2.9080   -4.4042   27.1365 O   0  0  0  0  0  0  0  0  0  0  0  0
    3.7171   -2.3156   28.3381 C   0  0  0  0  0  0  0  0  0  0  0  0
    4.3208   -1.5457   27.3182 C   0  0  0  0  0  0  0  0  0  0  0  0
    4.1026   -0.2394   27.6894 C   0  0  0  0  0  0  0  0  0  0  0  0
    3.4080   -0.2892   28.8629 N   0  0  0  0  0  0  0  0  0  0  0  0
    2.9013    0.8309   29.6202 C   0  0  0  0  0  0  0  0  0  0  0  0
    3.2024   -1.5421   29.3139 N   0  0  0  0  0  0  0  0  0  0  0  0
   -0.0412   -6.0845   30.4783 C   0  0  0  0  0  0  0  0  0  0  0  0
   -0.6290   -6.9411   31.4188 C   0  0  0  0  0  0  0  0  0  0  0  0
   -1.4341   -7.9581   31.2468 N   0  0  0  0  0  0  0  0  0  0  0  0
   -1.7643   -8.4122   32.4847 N   0  0  0  0  0  0  0  0  0  0  0  0
   -1.1564   -7.6819   33.3941 C   0  0  0  0  0  0  0  0  0  0  0  0
   -1.2999   -7.8504   34.7308 N   0  0  0  0  0  0  0  0  0  0  0  0
   -0.3660   -6.7248   32.7625 N   0  0  0  0  0  0  0  0  0  0  0  0
    1.5383   -4.9015   34.9745 H   0  0  0  0  0  0  0  0  0  0  0  0
   -0.1157   -5.4221   35.2629 H   0  0  0  0  0  0  0  0  0  0  0  0
    1.2103   -6.6064   35.0402 H   0  0  0  0  0  0  0  0  0  0  0  0
    0.3012   -2.6412   33.7846 H   0  0  0  0  0  0  0  0  0  0  0  0
    3.8657   -0.5836   33.4913 H   0  0  0  0  0  0  0  0  0  0  0  0
    4.8557   -2.4709   32.1582 H   0  0  0  0  0  0  0  0  0  0  0  0
    0.8855   -4.3311   28.8373 H   0  0  0  0  0  0  0  0  0  0  0  0
    1.3089   -3.1539   30.0765 H   0  0  0  0  0  0  0  0  0  0  0  0
    3.3170   -4.3585   30.5330 H   0  0  0  0  0  0  0  0  0  0  0  0
    4.8207   -1.9026   26.4286 H   0  0  0  0  0  0  0  0  0  0  0  0
    4.3603    0.6978   27.2151 H   0  0  0  0  0  0  0  0  0  0  0  0
    1.8192    0.7164   29.7216 H   0  0  0  0  0  0  0  0  0  0  0  0
    3.3827    0.8275   30.6012 H   0  0  0  0  0  0  0  0  0  0  0  0
    3.1311    1.7600   29.0930 H   0  0  0  0  0  0  0  0  0  0  0  0
   -0.2997   -6.2472   29.4469 H   0  0  0  0  0  0  0  0  0  0  0  0
   -1.6336   -8.8108   34.9360 H   0  0  0  0  0  0  0  0  0  0  0  0
   -0.5099   -7.6994   35.3434 H   0  0  0  0  0  0  0  0  0  0  0  0
  1  2  1  0
  2  3  2  0
  3  4  1  0
  4  5  2  0
  5  6  1  0
  6  7  2  0
  7  8  1  0
  8  9  2  0
  3 10  1  0
 10 11  1  0
 11 12  1  0
 12 13  1  0
 13 14  2  0
 13 15  2  0
 13 16  1  0
 16 17  1  0
 17 18  2  0
 18 19  1  0
 19 20  1  0
 19 21  1  0
 10 22  2  0
 22 23  1  0
 23 24  2  0
 24 25  1  0
 25 26  2  0
 26 27  1  0
 26 28  1  0
 28  2  1  0
  9  4  1  0
 21 16  2  0
 28 23  1  0
  1 29  1  0
  1 30  1  0
  1 31  1  0
  5 32  1  0
  7 33  1  0
  8 34  1  0
 11 35  1  0
 11 36  1  0
 12 37  1  0
 17 38  1  0
 18 39  1  0
 20 40  1  0
 20 41  1  0
 20 42  1  0
 22 43  1  0
 27 44  1  0
 27 45  1  0
M  END
>  <Energy>  (974) 
100.46665709218927

>  <compound_id>  (974) 
4446

>  <target_id>  (974) 
1

>  <reference_id>  (974) 
157

>  <inspiration_ids>  (974) 
[157, 150]

>  <energy_score>  (974) 
-57.248766033036986

>  <distance_score>  (974) 
0.6060054734121085

>  <path>  (974) 
/opt/xchem-fragalysis-2/maxwin/BulkDock/SCRATCH/505735/C4446-P157/C4446-P157.minimised.mol

>  <scratch_subdir>  (974) 
/opt/xchem-fragalysis-2/maxwin/BulkDock/SCRATCH/505735/C4446-P157

>  <fragmenstein_runtime>  (974) 
3.68998646736145

>  <fragmenstein_outcome>  (974) 
acceptable

>  <fragmenstein_mode>  (974) 
expansion

>  <fragmenstein_error>  (974) 


$$$$
C4446-P150
     RDKit          3D

 45 48  0  0  0  0  0  0  0  0999 V2000
    0.8336   -5.6144   34.7223 C   0  0  0  0  0  0  0  0  0  0  0  0
    0.5132   -5.6422   33.2522 C   0  0  0  0  0  0  0  0  0  0  0  0
    1.0262   -4.7655   32.3354 C   0  0  0  0  0  0  0  0  0  0  0  0
    1.8513   -3.6100   32.7597 C   0  0  0  0  0  0  0  0  0  0  0  0
    1.3167   -2.5579   33.5004 C   0  0  0  0  0  0  0  0  0  0  0  0
    2.0258   -1.4466   33.8139 N   0  0  0  0  0  0  0  0  0  0  0  0
    3.2864   -1.4113   33.3296 C   0  0  0  0  0  0  0  0  0  0  0  0
    3.8213   -2.4445   32.5806 C   0  0  0  0  0  0  0  0  0  0  0  0
    3.1231   -3.5673   32.2810 N   0  0  0  0  0  0  0  0  0  0  0  0
    0.7099   -4.9650   30.8948 C   0  0  0  0  0  0  0  0  0  0  0  0
    1.2646   -4.0208   29.8393 C   0  0  0  0  0  0  0  0  0  0  0  0
    2.6882   -4.3528   29.6754 N   0  0  0  0  0  0  0  0  0  0  0  0
    3.4857   -3.6576   28.3640 S   0  0  0  0  0  0  0  0  0  0  0  0
    4.8944   -3.9567   28.5171 O   0  0  0  0  0  0  0  0  0  0  0  0
    2.7702   -3.9902   27.1502 O   0  0  0  0  0  0  0  0  0  0  0  0
    3.4154   -1.9108   28.4670 C   0  0  0  0  0  0  0  0  0  0  0  0
    3.9062   -1.0368   27.4704 C   0  0  0  0  0  0  0  0  0  0  0  0
    3.5986    0.2236   27.9277 C   0  0  0  0  0  0  0  0  0  0  0  0
    2.9697    0.0500   29.1258 N   0  0  0  0  0  0  0  0  0  0  0  0
    2.4059    1.0780   29.9685 C   0  0  0  0  0  0  0  0  0  0  0  0
    2.8933   -1.2379   29.5116 N   0  0  0  0  0  0  0  0  0  0  0  0
   -0.0923   -5.9720   30.5135 C   0  0  0  0  0  0  0  0  0  0  0  0
   -0.6316   -6.8660   31.4501 C   0  0  0  0  0  0  0  0  0  0  0  0
   -1.4122   -7.9013   31.2766 N   0  0  0  0  0  0  0  0  0  0  0  0
   -1.7261   -8.3721   32.5123 N   0  0  0  0  0  0  0  0  0  0  0  0
   -1.1272   -7.6392   33.4251 C   0  0  0  0  0  0  0  0  0  0  0  0
   -1.2646   -7.8218   34.7614 N   0  0  0  0  0  0  0  0  0  0  0  0
   -0.3543   -6.6646   32.7940 N   0  0  0  0  0  0  0  0  0  0  0  0
    1.5851   -4.8681   34.9929 H   0  0  0  0  0  0  0  0  0  0  0  0
   -0.0623   -5.3929   35.3110 H   0  0  0  0  0  0  0  0  0  0  0  0
    1.2567   -6.5742   35.0374 H   0  0  0  0  0  0  0  0  0  0  0  0
    0.2898   -2.5689   33.8523 H   0  0  0  0  0  0  0  0  0  0  0  0
    3.8620   -0.5224   33.5613 H   0  0  0  0  0  0  0  0  0  0  0  0
    4.8340   -2.3947   32.1946 H   0  0  0  0  0  0  0  0  0  0  0  0
    0.7350   -4.1455   28.8901 H   0  0  0  0  0  0  0  0  0  0  0  0
    1.1193   -2.9862   30.1589 H   0  0  0  0  0  0  0  0  0  0  0  0
    3.2039   -4.1213   30.5369 H   0  0  0  0  0  0  0  0  0  0  0  0
    4.3867   -1.2974   26.5373 H   0  0  0  0  0  0  0  0  0  0  0  0
    3.7496    1.2027   27.4954 H   0  0  0  0  0  0  0  0  0  0  0  0
    1.3447    0.8607   30.1136 H   0  0  0  0  0  0  0  0  0  0  0  0
    2.9357    1.0669   30.9242 H   0  0  0  0  0  0  0  0  0  0  0  0
    2.5255    2.0505   29.4849 H   0  0  0  0  0  0  0  0  0  0  0  0
   -0.3848   -6.1042   29.4858 H   0  0  0  0  0  0  0  0  0  0  0  0
   -1.5836   -8.7861   34.9746 H   0  0  0  0  0  0  0  0  0  0  0  0
   -0.4866   -7.6331   35.3780 H   0  0  0  0  0  0  0  0  0  0  0  0
  1  2  1  0
  2  3  2  0
  3  4  1  0
  4  5  2  0
  5  6  1  0
  6  7  2  0
  7  8  1  0
  8  9  2  0
  3 10  1  0
 10 11  1  0
 11 12  1  0
 12 13  1  0
 13 14  2  0
 13 15  2  0
 13 16  1  0
 16 17  1  0
 17 18  2  0
 18 19  1  0
 19 20  1  0
 19 21  1  0
 10 22  2  0
 22 23  1  0
 23 24  2  0
 24 25  1  0
 25 26  2  0
 26 27  1  0
 26 28  1  0
 28  2  1  0
  9  4  1  0
 21 16  2  0
 28 23  1  0
  1 29  1  0
  1 30  1  0
  1 31  1  0
  5 32  1  0
  7 33  1  0
  8 34  1  0
 11 35  1  0
 11 36  1  0
 12 37  1  0
 17 38  1  0
 18 39  1  0
 20 40  1  0
 20 41  1  0
 20 42  1  0
 22 43  1  0
 27 44  1  0
 27 45  1  0
M  END
>  <Energy>  (975) 
100.26079492234788

>  <compound_id>  (975) 
4446

>  <target_id>  (975) 
1

>  <reference_id>  (975) 
150

>  <inspiration_ids>  (975) 
[157, 150]

>  <energy_score>  (975) 
-57.45462820287787

>  <distance_score>  (975) 
0.6208376829072655

>  <path>  (975) 
/opt/xchem-fragalysis-2/maxwin/BulkDock/SCRATCH/505735/C4446-P150/C4446-P150.minimised.mol

>  <scratch_subdir>  (975) 
/opt/xchem-fragalysis-2/maxwin/BulkDock/SCRATCH/505735/C4446-P150

>  <fragmenstein_runtime>  (975) 
3.4261107444763184

>  <fragmenstein_outcome>  (975) 
acceptable

>  <fragmenstein_mode>  (975) 
expansion

>  <fragmenstein_error>  (975) 


$$$$
C4449-P157
     RDKit          3D

 43 46  0  0  0  0  0  0  0  0999 V2000
    8.2730   -9.5800   26.5167 N   0  0  0  0  0  0  0  0  0  0  0  0
    7.5271   -8.4141   26.7253 C   0  0  0  0  0  0  0  0  0  0  0  0
    7.1608   -8.0399   28.0127 C   0  0  0  0  0  0  0  0  0  0  0  0
    6.3376   -6.9269   28.1986 C   0  0  0  0  0  0  0  0  0  0  0  0
    5.8718   -6.2322   27.0868 C   0  0  0  0  0  0  0  0  0  0  0  0
    4.7525   -4.8732   27.2418 S   0  0  0  0  0  0  0  0  0  0  0  0
    3.7061   -5.0098   26.2535 O   0  0  0  0  0  0  0  0  0  0  0  0
    5.5214   -3.6638   27.4139 O   0  0  0  0  0  0  0  0  0  0  0  0
    3.9877   -5.1378   28.7673 N   0  0  0  0  0  0  0  0  0  0  0  0
    2.7503   -4.3116   29.0215 C   0  0  0  0  0  0  0  0  0  0  0  0
    1.8811   -4.9682   30.1674 C   0  0  0  0  0  0  0  0  0  0  0  0
    1.2683   -6.1373   29.8922 C   0  0  0  0  0  0  0  0  0  0  0  0
    0.3195   -6.7652   30.7430 C   0  0  0  0  0  0  0  0  0  0  0  0
   -0.4570   -7.8188   30.6041 N   0  0  0  0  0  0  0  0  0  0  0  0
   -1.0746   -8.0438   31.8156 N   0  0  0  0  0  0  0  0  0  0  0  0
   -0.6843   -7.1123   32.6602 C   0  0  0  0  0  0  0  0  0  0  0  0
   -0.9661   -7.0426   33.9810 N   0  0  0  0  0  0  0  0  0  0  0  0
    0.1509   -6.2221   31.9961 N   0  0  0  0  0  0  0  0  0  0  0  0
    0.7995   -5.0524   32.3839 C   0  0  0  0  0  0  0  0  0  0  0  0
    1.6180   -4.3818   31.5209 C   0  0  0  0  0  0  0  0  0  0  0  0
    2.2991   -3.1859   32.0496 C   0  0  0  0  0  0  0  0  0  0  0  0
    1.6844   -2.2749   32.9121 C   0  0  0  0  0  0  0  0  0  0  0  0
    2.3227   -1.2000   33.4297 N   0  0  0  0  0  0  0  0  0  0  0  0
    3.6001   -1.0448   33.0255 C   0  0  0  0  0  0  0  0  0  0  0  0
    4.2149   -1.9326   32.1592 C   0  0  0  0  0  0  0  0  0  0  0  0
    3.5882   -3.0256   31.6644 N   0  0  0  0  0  0  0  0  0  0  0  0
    6.2806   -6.6645   25.8379 C   0  0  0  0  0  0  0  0  0  0  0  0
    7.1092   -7.7317   25.6521 N   0  0  0  0  0  0  0  0  0  0  0  0
    7.7029  -10.3829   26.7686 H   0  0  0  0  0  0  0  0  0  0  0  0
    9.1000   -9.5757   27.1026 H   0  0  0  0  0  0  0  0  0  0  0  0
    7.4939   -8.6113   28.8713 H   0  0  0  0  0  0  0  0  0  0  0  0
    6.0649   -6.6384   29.2068 H   0  0  0  0  0  0  0  0  0  0  0  0
    4.6604   -4.8256   29.4769 H   0  0  0  0  0  0  0  0  0  0  0  0
    2.1283   -4.2816   28.1205 H   0  0  0  0  0  0  0  0  0  0  0  0
    3.0280   -3.2830   29.2608 H   0  0  0  0  0  0  0  0  0  0  0  0
    1.5874   -6.6420   29.0035 H   0  0  0  0  0  0  0  0  0  0  0  0
   -1.5409   -7.8155   34.3263 H   0  0  0  0  0  0  0  0  0  0  0  0
   -1.2505   -6.1528   34.3814 H   0  0  0  0  0  0  0  0  0  0  0  0
    0.6116   -4.7485   33.4073 H   0  0  0  0  0  0  0  0  0  0  0  0
    0.6465   -2.3697   33.2134 H   0  0  0  0  0  0  0  0  0  0  0  0
    4.1228   -0.1787   33.4162 H   0  0  0  0  0  0  0  0  0  0  0  0
    5.2420   -1.7870   31.8417 H   0  0  0  0  0  0  0  0  0  0  0  0
    5.9630   -6.1788   24.9197 H   0  0  0  0  0  0  0  0  0  0  0  0
  1  2  1  0
  2  3  2  0
  3  4  1  0
  4  5  2  0
  5  6  1  0
  6  7  2  0
  6  8  2  0
  6  9  1  0
  9 10  1  0
 10 11  1  0
 11 12  2  0
 12 13  1  0
 13 14  2  0
 14 15  1  0
 15 16  2  0
 16 17  1  0
 16 18  1  0
 18 19  1  0
 19 20  2  0
 20 21  1  0
 21 22  2  0
 22 23  1  0
 23 24  2  0
 24 25  1  0
 25 26  2  0
  5 27  1  0
 27 28  2  0
 28  2  1  0
 20 11  1  0
 26 21  1  0
 18 13  1  0
  1 29  1  0
  1 30  1  0
  3 31  1  0
  4 32  1  0
  9 33  1  0
 10 34  1  0
 10 35  1  0
 12 36  1  0
 17 37  1  0
 17 38  1  0
 19 39  1  0
 22 40  1  0
 24 41  1  0
 25 42  1  0
 27 43  1  0
M  END
>  <Energy>  (976) 
-2.8130375689140306

>  <compound_id>  (976) 
4449

>  <target_id>  (976) 
1

>  <reference_id>  (976) 
157

>  <inspiration_ids>  (976) 
[157, 154]

>  <energy_score>  (976) 
-63.558369057713236

>  <distance_score>  (976) 
1.5469832355656523

>  <path>  (976) 
/opt/xchem-fragalysis-2/maxwin/BulkDock/SCRATCH/505735/C4449-P157/C4449-P157.minimised.mol

>  <scratch_subdir>  (976) 
/opt/xchem-fragalysis-2/maxwin/BulkDock/SCRATCH/505735/C4449-P157

>  <fragmenstein_runtime>  (976) 
5.054865837097168

>  <fragmenstein_outcome>  (976) 
too moved

>  <fragmenstein_mode>  (976) 
expansion

>  <fragmenstein_error>  (976) 


$$$$
C4449-P154
     RDKit          3D

 43 46  0  0  0  0  0  0  0  0999 V2000
    8.2633   -9.6466   26.5155 N   0  0  0  0  0  0  0  0  0  0  0  0
    7.5371   -8.4651   26.6979 C   0  0  0  0  0  0  0  0  0  0  0  0
    7.1610   -8.0663   27.9769 C   0  0  0  0  0  0  0  0  0  0  0  0
    6.3705   -6.9262   28.1324 C   0  0  0  0  0  0  0  0  0  0  0  0
    5.9466   -6.2362   27.0006 C   0  0  0  0  0  0  0  0  0  0  0  0
    4.9714   -4.7799   27.1723 S   0  0  0  0  0  0  0  0  0  0  0  0
    4.4808   -4.3706   25.8797 O   0  0  0  0  0  0  0  0  0  0  0  0
    5.6830   -3.8822   28.0542 O   0  0  0  0  0  0  0  0  0  0  0  0
    3.5455   -5.3340   27.9994 N   0  0  0  0  0  0  0  0  0  0  0  0
    3.1725   -4.4930   29.2032 C   0  0  0  0  0  0  0  0  0  0  0  0
    2.0201   -5.1082   30.1013 C   0  0  0  0  0  0  0  0  0  0  0  0
    1.3363   -6.2209   29.7459 C   0  0  0  0  0  0  0  0  0  0  0  0
    0.3329   -6.8233   30.5653 C   0  0  0  0  0  0  0  0  0  0  0  0
   -0.5114   -7.8184   30.3819 N   0  0  0  0  0  0  0  0  0  0  0  0
   -1.1272   -8.0787   31.5911 N   0  0  0  0  0  0  0  0  0  0  0  0
   -0.6706   -7.2216   32.4792 C   0  0  0  0  0  0  0  0  0  0  0  0
   -0.9250   -7.1966   33.8100 N   0  0  0  0  0  0  0  0  0  0  0  0
    0.1948   -6.3403   31.8480 N   0  0  0  0  0  0  0  0  0  0  0  0
    0.8589   -5.2055   32.2884 C   0  0  0  0  0  0  0  0  0  0  0  0
    1.6953   -4.5191   31.4619 C   0  0  0  0  0  0  0  0  0  0  0  0
    2.2853   -3.2787   32.0201 C   0  0  0  0  0  0  0  0  0  0  0  0
    1.6069   -2.4279   32.8988 C   0  0  0  0  0  0  0  0  0  0  0  0
    2.1552   -1.3077   33.4285 N   0  0  0  0  0  0  0  0  0  0  0  0
    3.4136   -1.0416   33.0229 C   0  0  0  0  0  0  0  0  0  0  0  0
    4.0906   -1.8628   32.1406 C   0  0  0  0  0  0  0  0  0  0  0  0
    3.5464   -2.9936   31.6345 N   0  0  0  0  0  0  0  0  0  0  0  0
    6.3669   -6.6861   25.7635 C   0  0  0  0  0  0  0  0  0  0  0  0
    7.1564   -7.7863   25.6055 N   0  0  0  0  0  0  0  0  0  0  0  0
    7.6818  -10.4405   26.7667 H   0  0  0  0  0  0  0  0  0  0  0  0
    9.0835   -9.6505   27.1113 H   0  0  0  0  0  0  0  0  0  0  0  0
    7.4695   -8.6352   28.8475 H   0  0  0  0  0  0  0  0  0  0  0  0
    6.0943   -6.5843   29.1250 H   0  0  0  0  0  0  0  0  0  0  0  0
    2.8036   -5.2725   27.2907 H   0  0  0  0  0  0  0  0  0  0  0  0
    4.0664   -4.4495   29.8311 H   0  0  0  0  0  0  0  0  0  0  0  0
    2.8715   -3.4952   28.8687 H   0  0  0  0  0  0  0  0  0  0  0  0
    1.6430   -6.7435   28.8563 H   0  0  0  0  0  0  0  0  0  0  0  0
   -1.4985   -7.9813   34.1266 H   0  0  0  0  0  0  0  0  0  0  0  0
   -1.2933   -6.3239   34.1980 H   0  0  0  0  0  0  0  0  0  0  0  0
    0.6367   -4.9213   33.3108 H   0  0  0  0  0  0  0  0  0  0  0  0
    0.5820   -2.6067   33.2054 H   0  0  0  0  0  0  0  0  0  0  0  0
    3.8671   -0.1425   33.4246 H   0  0  0  0  0  0  0  0  0  0  0  0
    5.1003   -1.6349   31.8156 H   0  0  0  0  0  0  0  0  0  0  0  0
    6.1013   -6.1832   24.8367 H   0  0  0  0  0  0  0  0  0  0  0  0
  1  2  1  0
  2  3  2  0
  3  4  1  0
  4  5  2  0
  5  6  1  0
  6  7  2  0
  6  8  2  0
  6  9  1  0
  9 10  1  0
 10 11  1  0
 11 12  2  0
 12 13  1  0
 13 14  2  0
 14 15  1  0
 15 16  2  0
 16 17  1  0
 16 18  1  0
 18 19  1  0
 19 20  2  0
 20 21  1  0
 21 22  2  0
 22 23  1  0
 23 24  2  0
 24 25  1  0
 25 26  2  0
  5 27  1  0
 27 28  2  0
 28  2  1  0
 20 11  1  0
 26 21  1  0
 18 13  1  0
  1 29  1  0
  1 30  1  0
  3 31  1  0
  4 32  1  0
  9 33  1  0
 10 34  1  0
 10 35  1  0
 12 36  1  0
 17 37  1  0
 17 38  1  0
 19 39  1  0
 22 40  1  0
 24 41  1  0
 25 42  1  0
 27 43  1  0
M  END
>  <Energy>  (977) 
-5.2495639563805208

>  <compound_id>  (977) 
4449

>  <target_id>  (977) 
1

>  <reference_id>  (977) 
154

>  <inspiration_ids>  (977) 
[157, 154]

>  <energy_score>  (977) 
-65.99489544518158

>  <distance_score>  (977) 
1.5398192686073247

>  <path>  (977) 
/opt/xchem-fragalysis-2/maxwin/BulkDock/SCRATCH/505735/C4449-P154/C4449-P154.minimised.mol

>  <scratch_subdir>  (977) 
/opt/xchem-fragalysis-2/maxwin/BulkDock/SCRATCH/505735/C4449-P154

>  <fragmenstein_runtime>  (977) 
3.7865183353424072

>  <fragmenstein_outcome>  (977) 
too moved

>  <fragmenstein_mode>  (977) 
expansion

>  <fragmenstein_error>  (977) 


$$$$
C4449-P157
     RDKit          2D

  0  0  0  0  0  0  0  0  0  0999 V2000
M  END
>  <compound_id>  (978) 
4449

>  <target_id>  (978) 
1

>  <reference_id>  (978) 
157

>  <inspiration_ids>  (978) 
[157, 155]

>  <energy_score>  (978) 
nan

>  <distance_score>  (978) 
nan

>  <path>  (978) 
/opt/xchem-fragalysis-2/maxwin/BulkDock/SCRATCH/505735/C4449-P157/C4449-P157.minimised.mol

>  <scratch_subdir>  (978) 
/opt/xchem-fragalysis-2/maxwin/BulkDock/SCRATCH/505735/C4449-P157

>  <fragmenstein_runtime>  (978) 
1.0646100044250488

>  <fragmenstein_outcome>  (978) 
too distant

>  <fragmenstein_mode>  (978) 
expansion

>  <fragmenstein_error>  (978) 
DistanceError: hit1

$$$$
C4462-P157
     RDKit          3D

 44 47  0  0  0  0  0  0  0  0999 V2000
   -1.9478   -7.6787   34.2516 N   0  0  0  0  0  0  0  0  0  0  0  0
   -1.6091   -7.4677   32.9544 C   0  0  0  0  0  0  0  0  0  0  0  0
   -1.6830   -8.3069   31.9395 N   0  0  0  0  0  0  0  0  0  0  0  0
   -0.8397   -7.8571   30.9449 N   0  0  0  0  0  0  0  0  0  0  0  0
   -0.2674   -6.7708   31.4118 C   0  0  0  0  0  0  0  0  0  0  0  0
    0.9863   -6.1376   31.1754 C   0  0  0  0  0  0  0  0  0  0  0  0
    1.4230   -5.4013   32.2195 C   0  0  0  0  0  0  0  0  0  0  0  0
    2.5562   -5.6818   33.0137 N   0  0  0  0  0  0  0  0  0  0  0  0
    2.3979   -5.5104   34.7204 N   0  0  0  0  0  0  0  0  0  0  0  0
    1.3196   -6.5473   35.5999 S   0  0  0  0  0  0  0  0  0  0  0  0
   -0.0264   -6.0618   35.4212 O   0  0  0  0  0  0  0  0  0  0  0  0
    1.6869   -7.9119   35.3210 O   0  0  0  0  0  0  0  0  0  0  0  0
    1.7095   -6.1594   37.1912 N   0  0  0  0  0  0  0  0  0  0  0  0
    3.0315   -6.5976   37.7028 C   0  0  0  0  0  0  0  0  0  0  0  0
    2.9885   -8.0114   38.2877 C   0  0  0  0  0  0  0  0  0  0  0  0
    1.9998   -8.1305   39.3143 O   0  0  0  0  0  0  0  0  0  0  0  0
    0.7022   -7.8481   38.7744 C   0  0  0  0  0  0  0  0  0  0  0  0
    0.6435   -6.4170   38.2346 C   0  0  0  0  0  0  0  0  0  0  0  0
    0.4542   -4.4669   32.7923 C   0  0  0  0  0  0  0  0  0  0  0  0
    0.9508   -3.1112   33.0877 C   0  0  0  0  0  0  0  0  0  0  0  0
    0.4614   -2.2886   34.0826 C   0  0  0  0  0  0  0  0  0  0  0  0
    1.0593   -1.1130   34.4048 N   0  0  0  0  0  0  0  0  0  0  0  0
    2.1408   -0.7664   33.6678 C   0  0  0  0  0  0  0  0  0  0  0  0
    2.6341   -1.5704   32.6645 C   0  0  0  0  0  0  0  0  0  0  0  0
    2.0692   -2.7592   32.3738 N   0  0  0  0  0  0  0  0  0  0  0  0
   -0.7314   -5.0502   33.0671 C   0  0  0  0  0  0  0  0  0  0  0  0
   -0.9522   -6.3296   32.5308 N   0  0  0  0  0  0  0  0  0  0  0  0
   -1.9437   -8.6811   34.5045 H   0  0  0  0  0  0  0  0  0  0  0  0
   -1.4078   -7.1541   34.9437 H   0  0  0  0  0  0  0  0  0  0  0  0
    1.6375   -6.6784   30.5352 H   0  0  0  0  0  0  0  0  0  0  0  0
    3.2564   -4.9680   32.7675 H   0  0  0  0  0  0  0  0  0  0  0  0
    2.1566   -4.5432   34.9583 H   0  0  0  0  0  0  0  0  0  0  0  0
    3.7929   -6.5306   36.9190 H   0  0  0  0  0  0  0  0  0  0  0  0
    3.3246   -5.8875   38.4863 H   0  0  0  0  0  0  0  0  0  0  0  0
    2.8010   -8.7584   37.5150 H   0  0  0  0  0  0  0  0  0  0  0  0
    3.9578   -8.2485   38.7380 H   0  0  0  0  0  0  0  0  0  0  0  0
    0.4695   -8.5663   37.9845 H   0  0  0  0  0  0  0  0  0  0  0  0
   -0.0274   -7.9764   39.5794 H   0  0  0  0  0  0  0  0  0  0  0  0
   -0.3533   -6.1885   37.8469 H   0  0  0  0  0  0  0  0  0  0  0  0
    0.8304   -5.7090   39.0521 H   0  0  0  0  0  0  0  0  0  0  0  0
   -0.4043   -2.5511   34.6818 H   0  0  0  0  0  0  0  0  0  0  0  0
    2.5953    0.1875   33.9113 H   0  0  0  0  0  0  0  0  0  0  0  0
    3.4955   -1.2842   32.0731 H   0  0  0  0  0  0  0  0  0  0  0  0
   -1.4970   -4.6273   33.6951 H   0  0  0  0  0  0  0  0  0  0  0  0
  1  2  1  0
  2  3  2  0
  3  4  1  0
  4  5  2  0
  5  6  1  0
  6  7  2  0
  7  8  1  0
  8  9  1  0
  9 10  1  0
 10 11  2  0
 10 12  2  0
 10 13  1  0
 13 14  1  0
 14 15  1  0
 15 16  1  0
 16 17  1  0
 17 18  1  0
  7 19  1  0
 19 20  1  0
 20 21  2  0
 21 22  1  0
 22 23  2  0
 23 24  1  0
 24 25  2  0
 19 26  2  0
 26 27  1  0
 27  2  1  0
 27  5  1  0
 18 13  1  0
 25 20  1  0
  1 28  1  0
  1 29  1  0
  6 30  1  0
  8 31  1  0
  9 32  1  0
 14 33  1  0
 14 34  1  0
 15 35  1  0
 15 36  1  0
 17 37  1  0
 17 38  1  0
 18 39  1  0
 18 40  1  0
 21 41  1  0
 23 42  1  0
 24 43  1  0
 26 44  1  0
M  END
>  <Energy>  (979) 
118.72717811687643

>  <compound_id>  (979) 
4462

>  <target_id>  (979) 
1

>  <reference_id>  (979) 
157

>  <inspiration_ids>  (979) 
[157, 159]

>  <energy_score>  (979) 
-17.92336094240261

>  <distance_score>  (979) 
1.2516048177266301

>  <path>  (979) 
/opt/xchem-fragalysis-2/maxwin/BulkDock/SCRATCH/505735/C4462-P157/C4462-P157.minimised.mol

>  <scratch_subdir>  (979) 
/opt/xchem-fragalysis-2/maxwin/BulkDock/SCRATCH/505735/C4462-P157

>  <fragmenstein_runtime>  (979) 
14.123193740844727

>  <fragmenstein_outcome>  (979) 
too moved

>  <fragmenstein_mode>  (979) 
expansion

>  <fragmenstein_error>  (979) 


$$$$
C4462-P159
     RDKit          3D

 44 47  0  0  0  0  0  0  0  0999 V2000
   -2.1837   -7.6728   34.4308 N   0  0  0  0  0  0  0  0  0  0  0  0
   -1.6750   -7.4859   33.1888 C   0  0  0  0  0  0  0  0  0  0  0  0
   -1.7535   -8.3351   32.1830 N   0  0  0  0  0  0  0  0  0  0  0  0
   -0.7986   -7.9945   31.2584 N   0  0  0  0  0  0  0  0  0  0  0  0
   -0.1412   -6.9797   31.7667 C   0  0  0  0  0  0  0  0  0  0  0  0
    1.0518   -6.2759   31.4260 C   0  0  0  0  0  0  0  0  0  0  0  0
    1.5193   -5.4879   32.4291 C   0  0  0  0  0  0  0  0  0  0  0  0
    2.3294   -5.8365   33.5484 N   0  0  0  0  0  0  0  0  0  0  0  0
    1.9276   -6.9206   34.6056 N   0  0  0  0  0  0  0  0  0  0  0  0
    0.8771   -6.5401   35.9248 S   0  0  0  0  0  0  0  0  0  0  0  0
    0.3709   -5.2036   35.7400 O   0  0  0  0  0  0  0  0  0  0  0  0
   -0.0135   -7.6619   36.0790 O   0  0  0  0  0  0  0  0  0  0  0  0
    1.9041   -6.4927   37.2475 N   0  0  0  0  0  0  0  0  0  0  0  0
    2.5004   -7.7800   37.7224 C   0  0  0  0  0  0  0  0  0  0  0  0
    1.5916   -8.5484   38.6847 C   0  0  0  0  0  0  0  0  0  0  0  0
    1.2263   -7.7409   39.8031 O   0  0  0  0  0  0  0  0  0  0  0  0
    0.4900   -6.6037   39.3519 C   0  0  0  0  0  0  0  0  0  0  0  0
    1.3675   -5.7345   38.4472 C   0  0  0  0  0  0  0  0  0  0  0  0
    0.5228   -4.4869   32.8307 C   0  0  0  0  0  0  0  0  0  0  0  0
    1.0041   -3.1102   33.0054 C   0  0  0  0  0  0  0  0  0  0  0  0
    0.6663   -2.2919   34.0677 C   0  0  0  0  0  0  0  0  0  0  0  0
    1.2861   -1.1048   34.2922 N   0  0  0  0  0  0  0  0  0  0  0  0
    2.2465   -0.7587   33.4039 C   0  0  0  0  0  0  0  0  0  0  0  0
    2.5892   -1.5642   32.3382 C   0  0  0  0  0  0  0  0  0  0  0  0
    1.9898   -2.7541   32.1268 N   0  0  0  0  0  0  0  0  0  0  0  0
   -0.6360   -5.0863   33.2064 C   0  0  0  0  0  0  0  0  0  0  0  0
   -0.8611   -6.4293   32.8148 N   0  0  0  0  0  0  0  0  0  0  0  0
   -2.4715   -8.6514   34.5451 H   0  0  0  0  0  0  0  0  0  0  0  0
   -1.5248   -7.4915   35.1925 H   0  0  0  0  0  0  0  0  0  0  0  0
    0.8728   -5.7802   30.4683 H   0  0  0  0  0  0  0  0  0  0  0  0
    2.5615   -4.9749   34.0648 H   0  0  0  0  0  0  0  0  0  0  0  0
    2.7335   -7.4324   34.9723 H   0  0  0  0  0  0  0  0  0  0  0  0
    2.7811   -8.4087   36.8739 H   0  0  0  0  0  0  0  0  0  0  0  0
    3.4345   -7.5210   38.2373 H   0  0  0  0  0  0  0  0  0  0  0  0
    0.6812   -8.8981   38.1932 H   0  0  0  0  0  0  0  0  0  0  0  0
    2.1270   -9.4190   39.0740 H   0  0  0  0  0  0  0  0  0  0  0  0
   -0.4204   -6.9282   38.8380 H   0  0  0  0  0  0  0  0  0  0  0  0
    0.1882   -6.0312   40.2345 H   0  0  0  0  0  0  0  0  0  0  0  0
    0.8302   -4.8344   38.1346 H   0  0  0  0  0  0  0  0  0  0  0  0
    2.2444   -5.3905   39.0111 H   0  0  0  0  0  0  0  0  0  0  0  0
   -0.0793   -2.5759   34.8030 H   0  0  0  0  0  0  0  0  0  0  0  0
    2.7303    0.1963   33.5755 H   0  0  0  0  0  0  0  0  0  0  0  0
    3.3552   -1.2766   31.6280 H   0  0  0  0  0  0  0  0  0  0  0  0
   -1.3769   -4.5862   33.7980 H   0  0  0  0  0  0  0  0  0  0  0  0
  1  2  1  0
  2  3  2  0
  3  4  1  0
  4  5  2  0
  5  6  1  0
  6  7  2  0
  7  8  1  0
  8  9  1  0
  9 10  1  0
 10 11  2  0
 10 12  2  0
 10 13  1  0
 13 14  1  0
 14 15  1  0
 15 16  1  0
 16 17  1  0
 17 18  1  0
  7 19  1  0
 19 20  1  0
 20 21  2  0
 21 22  1  0
 22 23  2  0
 23 24  1  0
 24 25  2  0
 19 26  2  0
 26 27  1  0
 27  2  1  0
 27  5  1  0
 18 13  1  0
 25 20  1  0
  1 28  1  0
  1 29  1  0
  6 30  1  0
  8 31  1  0
  9 32  1  0
 14 33  1  0
 14 34  1  0
 15 35  1  0
 15 36  1  0
 17 37  1  0
 17 38  1  0
 18 39  1  0
 18 40  1  0
 21 41  1  0
 23 42  1  0
 24 43  1  0
 26 44  1  0
M  END
>  <Energy>  (980) 
140.90082353081394

>  <compound_id>  (980) 
4462

>  <target_id>  (980) 
1

>  <reference_id>  (980) 
159

>  <inspiration_ids>  (980) 
[157, 159]

>  <energy_score>  (980) 
4.250284471537526

>  <distance_score>  (980) 
1.2480648461763304

>  <path>  (980) 
/opt/xchem-fragalysis-2/maxwin/BulkDock/SCRATCH/505735/C4462-P159/C4462-P159.minimised.mol

>  <scratch_subdir>  (980) 
/opt/xchem-fragalysis-2/maxwin/BulkDock/SCRATCH/505735/C4462-P159

>  <fragmenstein_runtime>  (980) 
8.783007144927979

>  <fragmenstein_outcome>  (980) 
too moved

>  <fragmenstein_mode>  (980) 
expansion

>  <fragmenstein_error>  (980) 


$$$$
C4464-P157
     RDKit          3D

 43 47  0  0  0  0  0  0  0  0999 V2000
    1.7108   -8.0042   37.3560 O   0  0  0  0  0  0  0  0  0  0  0  0
    0.8294   -7.3347   37.0978 C   0  0  0  0  0  0  0  0  0  0  0  0
   -0.1538   -6.5750   38.0219 N   0  0  0  0  0  0  0  0  0  0  0  0
   -0.1635   -6.4398   39.3702 C   0  0  0  0  0  0  0  0  0  0  0  0
    0.5644   -7.1740   40.3243 C   0  0  0  0  0  0  0  0  0  0  0  0
    0.2927   -6.7706   41.5681 N   0  0  0  0  0  0  0  0  0  0  0  0
   -0.5936   -5.7749   41.3906 N   0  0  0  0  0  0  0  0  0  0  0  0
   -0.9020   -5.5382   40.0826 C   0  0  0  0  0  0  0  0  0  0  0  0
    0.3234   -6.8338   35.7228 N   0  0  0  0  0  0  0  0  0  0  0  0
    0.8792   -6.9981   34.4177 C   0  0  0  0  0  0  0  0  0  0  0  0
    2.2430   -6.2691   34.4205 C   0  0  0  0  0  0  0  0  0  0  0  0
    2.4627   -5.2718   33.3022 C   0  0  0  0  0  0  0  0  0  0  0  0
    1.1638   -4.5764   32.8538 C   0  0  0  0  0  0  0  0  0  0  0  0
    0.4828   -3.7609   34.0401 C   0  0  0  0  0  0  0  0  0  0  0  0
    1.1140   -2.3443   34.0487 C   0  0  0  0  0  0  0  0  0  0  0  0
    1.5648   -2.2676   32.6615 C   0  0  0  0  0  0  0  0  0  0  0  0
    2.0752   -1.2682   31.9169 N   0  0  0  0  0  0  0  0  0  0  0  0
    2.4315   -1.8221   30.7074 C   0  0  0  0  0  0  0  0  0  0  0  0
    2.1111   -3.1739   30.7067 C   0  0  0  0  0  0  0  0  0  0  0  0
    1.5593   -3.4470   31.9618 C   0  0  0  0  0  0  0  0  0  0  0  0
    0.2157   -5.6568   32.4267 C   0  0  0  0  0  0  0  0  0  0  0  0
   -0.5314   -5.8528   31.3615 N   0  0  0  0  0  0  0  0  0  0  0  0
   -1.2341   -7.0348   31.5427 N   0  0  0  0  0  0  0  0  0  0  0  0
   -0.8992   -7.5260   32.7130 C   0  0  0  0  0  0  0  0  0  0  0  0
    0.0353   -6.7219   33.2772 N   0  0  0  0  0  0  0  0  0  0  0  0
   -0.7675   -6.0090   37.4684 H   0  0  0  0  0  0  0  0  0  0  0  0
    1.2641   -7.9853   40.1647 H   0  0  0  0  0  0  0  0  0  0  0  0
   -0.9574   -5.3049   42.2132 H   0  0  0  0  0  0  0  0  0  0  0  0
   -1.6129   -4.7738   39.8045 H   0  0  0  0  0  0  0  0  0  0  0  0
   -0.4348   -6.1890   35.8563 H   0  0  0  0  0  0  0  0  0  0  0  0
    1.1126   -8.0563   34.3705 H   0  0  0  0  0  0  0  0  0  0  0  0
    2.3911   -5.7338   35.3693 H   0  0  0  0  0  0  0  0  0  0  0  0
    3.0521   -7.0092   34.4083 H   0  0  0  0  0  0  0  0  0  0  0  0
    2.8839   -5.7955   32.4400 H   0  0  0  0  0  0  0  0  0  0  0  0
    3.2308   -4.5522   33.6163 H   0  0  0  0  0  0  0  0  0  0  0  0
   -0.5949   -3.6535   33.8434 H   0  0  0  0  0  0  0  0  0  0  0  0
    0.5760   -4.2237   35.0253 H   0  0  0  0  0  0  0  0  0  0  0  0
    1.9589   -2.2997   34.7431 H   0  0  0  0  0  0  0  0  0  0  0  0
    0.3792   -1.5797   34.3131 H   0  0  0  0  0  0  0  0  0  0  0  0
    2.1988   -0.2997   32.1862 H   0  0  0  0  0  0  0  0  0  0  0  0
    2.8799   -1.2066   29.9389 H   0  0  0  0  0  0  0  0  0  0  0  0
    2.2952   -3.8665   29.8955 H   0  0  0  0  0  0  0  0  0  0  0  0
   -1.2743   -8.4367   33.1572 H   0  0  0  0  0  0  0  0  0  0  0  0
  1  2  2  0
  2  3  1  0
  3  4  1  0
  4  5  1  0
  5  6  2  0
  6  7  1  0
  7  8  1  0
  2  9  1  0
  9 10  1  0
 10 11  1  0
 11 12  1  0
 12 13  1  0
 13 14  1  0
 14 15  1  0
 15 16  1  0
 16 17  1  0
 17 18  1  0
 18 19  2  0
 19 20  1  0
 13 21  1  0
 21 22  2  0
 22 23  1  0
 23 24  2  0
 24 25  1  0
  8  4  2  0
 25 10  1  0
 20 13  1  0
 25 21  1  0
 20 16  2  0
  3 26  1  0
  5 27  1  0
  7 28  1  0
  8 29  1  0
  9 30  1  0
 10 31  1  0
 11 32  1  0
 11 33  1  0
 12 34  1  0
 12 35  1  0
 14 36  1  0
 14 37  1  0
 15 38  1  0
 15 39  1  0
 17 40  1  0
 18 41  1  0
 19 42  1  0
 24 43  1  0
M  END
>  <Energy>  (981) 
16.058146340070699

>  <compound_id>  (981) 
4464

>  <target_id>  (981) 
1

>  <reference_id>  (981) 
157

>  <inspiration_ids>  (981) 
[157, 164]

>  <energy_score>  (981) 
-5.527085343766977

>  <distance_score>  (981) 
1.7619711595447252

>  <path>  (981) 
/opt/xchem-fragalysis-2/maxwin/BulkDock/SCRATCH/505735/C4464-P157/C4464-P157.minimised.mol

>  <scratch_subdir>  (981) 
/opt/xchem-fragalysis-2/maxwin/BulkDock/SCRATCH/505735/C4464-P157

>  <fragmenstein_runtime>  (981) 
9.49744176864624

>  <fragmenstein_outcome>  (981) 
too moved

>  <fragmenstein_mode>  (981) 
expansion

>  <fragmenstein_error>  (981) 


$$$$
C4464-P164
     RDKit          3D

 43 47  0  0  0  0  0  0  0  0999 V2000
    0.3231   -4.5101   37.5010 O   0  0  0  0  0  0  0  0  0  0  0  0
    0.2356   -5.6091   37.2197 C   0  0  0  0  0  0  0  0  0  0  0  0
    0.1953   -6.8752   38.1204 N   0  0  0  0  0  0  0  0  0  0  0  0
    0.1638   -6.9907   39.4730 C   0  0  0  0  0  0  0  0  0  0  0  0
    0.2057   -8.1214   40.3026 C   0  0  0  0  0  0  0  0  0  0  0  0
    0.1219   -7.7882   41.5946 N   0  0  0  0  0  0  0  0  0  0  0  0
    0.0395   -6.4476   41.5769 N   0  0  0  0  0  0  0  0  0  0  0  0
    0.0751   -5.9207   40.3253 C   0  0  0  0  0  0  0  0  0  0  0  0
    0.1976   -6.2860   35.8239 N   0  0  0  0  0  0  0  0  0  0  0  0
    0.3574   -5.7227   34.5149 C   0  0  0  0  0  0  0  0  0  0  0  0
   -0.1754   -4.2794   34.4578 C   0  0  0  0  0  0  0  0  0  0  0  0
   -0.4486   -3.7571   33.0397 C   0  0  0  0  0  0  0  0  0  0  0  0
    0.4775   -4.4433   31.9874 C   0  0  0  0  0  0  0  0  0  0  0  0
    0.1556   -3.8515   30.5702 C   0  0  0  0  0  0  0  0  0  0  0  0
    0.9558   -2.5096   30.4795 C   0  0  0  0  0  0  0  0  0  0  0  0
    2.0519   -2.7986   31.4189 C   0  0  0  0  0  0  0  0  0  0  0  0
    3.1879   -2.1508   31.7524 N   0  0  0  0  0  0  0  0  0  0  0  0
    3.8218   -2.9225   32.6975 C   0  0  0  0  0  0  0  0  0  0  0  0
    3.0376   -4.0362   32.9663 C   0  0  0  0  0  0  0  0  0  0  0  0
    1.8758   -3.9140   32.1908 C   0  0  0  0  0  0  0  0  0  0  0  0
    0.1745   -5.9154   32.0830 C   0  0  0  0  0  0  0  0  0  0  0  0
   -0.2946   -6.7604   31.1842 N   0  0  0  0  0  0  0  0  0  0  0  0
   -0.8940   -7.8079   31.8622 N   0  0  0  0  0  0  0  0  0  0  0  0
   -0.7714   -7.5768   33.1520 C   0  0  0  0  0  0  0  0  0  0  0  0
   -0.0292   -6.4650   33.3309 N   0  0  0  0  0  0  0  0  0  0  0  0
    0.1948   -7.6973   37.5472 H   0  0  0  0  0  0  0  0  0  0  0  0
    0.2902   -9.1671   40.0397 H   0  0  0  0  0  0  0  0  0  0  0  0
   -0.0386   -5.9585   42.4624 H   0  0  0  0  0  0  0  0  0  0  0  0
    0.0156   -4.8543   40.1579 H   0  0  0  0  0  0  0  0  0  0  0  0
    0.1964   -7.2826   35.9322 H   0  0  0  0  0  0  0  0  0  0  0  0
    1.4472   -5.6796   34.4344 H   0  0  0  0  0  0  0  0  0  0  0  0
   -1.0949   -4.1813   35.0454 H   0  0  0  0  0  0  0  0  0  0  0  0
    0.5507   -3.6169   34.9476 H   0  0  0  0  0  0  0  0  0  0  0  0
   -0.3509   -2.6641   33.0393 H   0  0  0  0  0  0  0  0  0  0  0  0
   -1.4957   -3.9616   32.7853 H   0  0  0  0  0  0  0  0  0  0  0  0
   -0.9143   -3.6960   30.3946 H   0  0  0  0  0  0  0  0  0  0  0  0
    0.5218   -4.5277   29.7847 H   0  0  0  0  0  0  0  0  0  0  0  0
    0.3472   -1.6685   30.8255 H   0  0  0  0  0  0  0  0  0  0  0  0
    1.2984   -2.3222   29.4586 H   0  0  0  0  0  0  0  0  0  0  0  0
    3.5300   -1.2794   31.3644 H   0  0  0  0  0  0  0  0  0  0  0  0
    4.7741   -2.6113   33.1066 H   0  0  0  0  0  0  0  0  0  0  0  0
    3.2905   -4.7852   33.7029 H   0  0  0  0  0  0  0  0  0  0  0  0
   -1.1928   -8.1716   33.9480 H   0  0  0  0  0  0  0  0  0  0  0  0
  1  2  2  0
  2  3  1  0
  3  4  1  0
  4  5  1  0
  5  6  2  0
  6  7  1  0
  7  8  1  0
  2  9  1  0
  9 10  1  0
 10 11  1  0
 11 12  1  0
 12 13  1  0
 13 14  1  0
 14 15  1  0
 15 16  1  0
 16 17  1  0
 17 18  1  0
 18 19  2  0
 19 20  1  0
 13 21  1  0
 21 22  2  0
 22 23  1  0
 23 24  2  0
 24 25  1  0
  8  4  2  0
 25 10  1  0
 20 13  1  0
 25 21  1  0
 20 16  2  0
  3 26  1  0
  5 27  1  0
  7 28  1  0
  8 29  1  0
  9 30  1  0
 10 31  1  0
 11 32  1  0
 11 33  1  0
 12 34  1  0
 12 35  1  0
 14 36  1  0
 14 37  1  0
 15 38  1  0
 15 39  1  0
 17 40  1  0
 18 41  1  0
 19 42  1  0
 24 43  1  0
M  END
>  <Energy>  (982) 
19.035372452743367

>  <compound_id>  (982) 
4464

>  <target_id>  (982) 
1

>  <reference_id>  (982) 
164

>  <inspiration_ids>  (982) 
[157, 164]

>  <energy_score>  (982) 
-2.5498592310935138

>  <distance_score>  (982) 
1.6382617635080206

>  <path>  (982) 
/opt/xchem-fragalysis-2/maxwin/BulkDock/SCRATCH/505735/C4464-P164/C4464-P164.minimised.mol

>  <scratch_subdir>  (982) 
/opt/xchem-fragalysis-2/maxwin/BulkDock/SCRATCH/505735/C4464-P164

>  <fragmenstein_runtime>  (982) 
10.953168153762817

>  <fragmenstein_outcome>  (982) 
too moved

>  <fragmenstein_mode>  (982) 
expansion

>  <fragmenstein_error>  (982) 


$$$$
C4465-P157
     RDKit          3D

 43 46  0  0  0  0  0  0  0  0999 V2000
    4.6470   -6.2364   36.1328 C   0  0  0  0  0  0  0  0  0  0  0  0
    3.9755   -4.8795   36.0233 C   0  0  0  0  0  0  0  0  0  0  0  0
    4.9432   -3.7197   36.1125 C   0  0  0  0  0  0  0  0  0  0  0  0
    4.1411   -2.5963   35.4823 C   0  0  0  0  0  0  0  0  0  0  0  0
    3.2457   -3.1994   34.5400 O   0  0  0  0  0  0  0  0  0  0  0  0
    3.3805   -4.6077   34.6524 C   0  0  0  0  0  0  0  0  0  0  0  0
    2.0966   -5.3013   34.3951 C   0  0  0  0  0  0  0  0  0  0  0  0
    1.0880   -4.9748   33.5636 C   0  0  0  0  0  0  0  0  0  0  0  0
    0.9631   -3.7696   32.6897 C   0  0  0  0  0  0  0  0  0  0  0  0
   -0.0287   -3.1634   32.6270 O   0  0  0  0  0  0  0  0  0  0  0  0
    2.2756   -3.6172   31.9049 N   0  0  0  0  0  0  0  0  0  0  0  0
    2.6542   -2.6889   31.0033 C   0  0  0  0  0  0  0  0  0  0  0  0
    3.9088   -2.4882   30.4238 C   0  0  0  0  0  0  0  0  0  0  0  0
    3.9042   -1.4538   29.5821 N   0  0  0  0  0  0  0  0  0  0  0  0
    2.6274   -1.0210   29.6134 N   0  0  0  0  0  0  0  0  0  0  0  0
    1.8374   -1.7383   30.4631 C   0  0  0  0  0  0  0  0  0  0  0  0
    0.0323   -5.9457   33.4138 C   0  0  0  0  0  0  0  0  0  0  0  0
   -0.6034   -6.3603   34.5233 C   0  0  0  0  0  0  0  0  0  0  0  0
   -1.4977   -7.4696   34.4227 C   0  0  0  0  0  0  0  0  0  0  0  0
   -1.7599   -8.0480   33.2460 C   0  0  0  0  0  0  0  0  0  0  0  0
   -1.1684   -7.6024   32.0677 C   0  0  0  0  0  0  0  0  0  0  0  0
   -1.2518   -8.0286   30.8333 N   0  0  0  0  0  0  0  0  0  0  0  0
   -0.4106   -7.2566   30.0982 N   0  0  0  0  0  0  0  0  0  0  0  0
    0.1383   -6.3705   30.9022 C   0  0  0  0  0  0  0  0  0  0  0  0
   -0.2886   -6.5522   32.1845 N   0  0  0  0  0  0  0  0  0  0  0  0
    3.9187   -7.0496   36.0558 H   0  0  0  0  0  0  0  0  0  0  0  0
    5.3969   -6.3816   35.3477 H   0  0  0  0  0  0  0  0  0  0  0  0
    5.1534   -6.3343   37.0989 H   0  0  0  0  0  0  0  0  0  0  0  0
    3.2141   -4.7759   36.8081 H   0  0  0  0  0  0  0  0  0  0  0  0
    5.8442   -3.9129   35.5170 H   0  0  0  0  0  0  0  0  0  0  0  0
    5.2577   -3.4886   37.1342 H   0  0  0  0  0  0  0  0  0  0  0  0
    3.5360   -2.0727   36.2299 H   0  0  0  0  0  0  0  0  0  0  0  0
    4.7756   -1.8653   34.9730 H   0  0  0  0  0  0  0  0  0  0  0  0
    4.0976   -4.9311   33.8849 H   0  0  0  0  0  0  0  0  0  0  0  0
    2.0317   -6.2592   34.9120 H   0  0  0  0  0  0  0  0  0  0  0  0
    2.9044   -4.3628   32.1538 H   0  0  0  0  0  0  0  0  0  0  0  0
    4.8326   -3.0271   30.5819 H   0  0  0  0  0  0  0  0  0  0  0  0
    2.3649   -0.2321   29.0305 H   0  0  0  0  0  0  0  0  0  0  0  0
    0.7910   -1.5012   30.5987 H   0  0  0  0  0  0  0  0  0  0  0  0
   -0.4275   -5.9403   35.5103 H   0  0  0  0  0  0  0  0  0  0  0  0
   -1.9288   -7.8708   35.3348 H   0  0  0  0  0  0  0  0  0  0  0  0
   -2.4274   -8.8775   33.1879 H   0  0  0  0  0  0  0  0  0  0  0  0
    0.8267   -5.5999   30.5913 H   0  0  0  0  0  0  0  0  0  0  0  0
  1  2  1  0
  2  3  1  0
  3  4  1  0
  4  5  1  0
  5  6  1  0
  6  7  1  0
  7  8  2  3
  8  9  1  0
  9 10  2  0
  9 11  1  0
 11 12  1  0
 12 13  1  0
 13 14  2  0
 14 15  1  0
 15 16  1  0
  8 17  1  0
 17 18  2  0
 18 19  1  0
 19 20  2  0
 20 21  1  0
 21 22  2  0
 22 23  1  0
 23 24  2  0
 24 25  1  0
  6  2  1  0
 16 12  2  0
 25 17  1  0
 25 21  1  0
  1 26  1  0
  1 27  1  0
  1 28  1  0
  2 29  1  0
  3 30  1  0
  3 31  1  0
  4 32  1  0
  4 33  1  0
  6 34  1  0
  7 35  1  0
 11 36  1  0
 13 37  1  0
 15 38  1  0
 16 39  1  0
 18 40  1  0
 19 41  1  0
 20 42  1  0
 24 43  1  0
M  END
>  <Energy>  (983) 
63.778173639345688

>  <compound_id>  (983) 
4465

>  <target_id>  (983) 
1

>  <reference_id>  (983) 
157

>  <inspiration_ids>  (983) 
[157, 165]

>  <energy_score>  (983) 
-34.516968544162836

>  <distance_score>  (983) 
2.5186693502511157

>  <path>  (983) 
/opt/xchem-fragalysis-2/maxwin/BulkDock/SCRATCH/505735/C4465-P157/C4465-P157.minimised.mol

>  <scratch_subdir>  (983) 
/opt/xchem-fragalysis-2/maxwin/BulkDock/SCRATCH/505735/C4465-P157

>  <fragmenstein_runtime>  (983) 
5.085672855377197

>  <fragmenstein_outcome>  (983) 
too moved

>  <fragmenstein_mode>  (983) 
expansion

>  <fragmenstein_error>  (983) 


$$$$
C4465-P165
     RDKit          3D

 43 46  0  0  0  0  0  0  0  0999 V2000
    4.1962   -6.8205   36.6962 C   0  0  0  0  0  0  0  0  0  0  0  0
    3.3202   -5.6080   36.3889 C   0  0  0  0  0  0  0  0  0  0  0  0
    4.1518   -4.5508   35.6807 C   0  0  0  0  0  0  0  0  0  0  0  0
    4.1122   -4.9995   34.2379 C   0  0  0  0  0  0  0  0  0  0  0  0
    3.0356   -5.9530   34.1148 O   0  0  0  0  0  0  0  0  0  0  0  0
    2.2659   -5.9644   35.3419 C   0  0  0  0  0  0  0  0  0  0  0  0
    1.1429   -4.9538   35.2104 C   0  0  0  0  0  0  0  0  0  0  0  0
    0.5872   -4.6471   34.0140 C   0  0  0  0  0  0  0  0  0  0  0  0
    0.9543   -3.1862   33.6513 C   0  0  0  0  0  0  0  0  0  0  0  0
    1.6376   -2.5327   34.3348 O   0  0  0  0  0  0  0  0  0  0  0  0
    0.3503   -2.8880   32.2620 N   0  0  0  0  0  0  0  0  0  0  0  0
    0.5264   -1.8361   31.4389 C   0  0  0  0  0  0  0  0  0  0  0  0
    1.4960   -0.8280   31.5336 C   0  0  0  0  0  0  0  0  0  0  0  0
    1.5804   -0.1230   30.4042 N   0  0  0  0  0  0  0  0  0  0  0  0
    0.6094   -0.6475   29.6258 N   0  0  0  0  0  0  0  0  0  0  0  0
   -0.0215   -1.7220   30.1942 C   0  0  0  0  0  0  0  0  0  0  0  0
    0.5023   -5.6178   32.8932 C   0  0  0  0  0  0  0  0  0  0  0  0
    1.2880   -5.4720   31.7955 C   0  0  0  0  0  0  0  0  0  0  0  0
    1.0568   -6.2520   30.6018 C   0  0  0  0  0  0  0  0  0  0  0  0
    0.1319   -7.2218   30.5825 C   0  0  0  0  0  0  0  0  0  0  0  0
   -0.6537   -7.4501   31.7267 C   0  0  0  0  0  0  0  0  0  0  0  0
   -1.6293   -8.2946   31.9382 N   0  0  0  0  0  0  0  0  0  0  0  0
   -2.0075   -8.1391   33.2437 N   0  0  0  0  0  0  0  0  0  0  0  0
   -1.2897   -7.1773   33.7799 C   0  0  0  0  0  0  0  0  0  0  0  0
   -0.4306   -6.6673   32.8521 N   0  0  0  0  0  0  0  0  0  0  0  0
    3.6002   -7.6100   37.1673 H   0  0  0  0  0  0  0  0  0  0  0  0
    4.6627   -7.2485   35.8026 H   0  0  0  0  0  0  0  0  0  0  0  0
    4.9962   -6.5498   37.3937 H   0  0  0  0  0  0  0  0  0  0  0  0
    2.8863   -5.2339   37.3223 H   0  0  0  0  0  0  0  0  0  0  0  0
    5.1735   -4.4516   36.0602 H   0  0  0  0  0  0  0  0  0  0  0  0
    3.6794   -3.5671   35.7794 H   0  0  0  0  0  0  0  0  0  0  0  0
    3.9451   -4.1675   33.5476 H   0  0  0  0  0  0  0  0  0  0  0  0
    5.0375   -5.5056   33.9456 H   0  0  0  0  0  0  0  0  0  0  0  0
    1.8428   -6.9626   35.4988 H   0  0  0  0  0  0  0  0  0  0  0  0
    1.1890   -4.1740   35.9738 H   0  0  0  0  0  0  0  0  0  0  0  0
   -0.2620   -3.6424   31.9920 H   0  0  0  0  0  0  0  0  0  0  0  0
    2.1802   -0.6141   32.3451 H   0  0  0  0  0  0  0  0  0  0  0  0
    0.4597   -0.2531   28.7013 H   0  0  0  0  0  0  0  0  0  0  0  0
   -0.7581   -2.2890   29.6422 H   0  0  0  0  0  0  0  0  0  0  0  0
    2.0801   -4.7284   31.7299 H   0  0  0  0  0  0  0  0  0  0  0  0
    1.6791   -6.0479   29.7357 H   0  0  0  0  0  0  0  0  0  0  0  0
   -0.0249   -7.8831   29.7434 H   0  0  0  0  0  0  0  0  0  0  0  0
   -1.3549   -6.8282   34.8000 H   0  0  0  0  0  0  0  0  0  0  0  0
  1  2  1  0
  2  3  1  0
  3  4  1  0
  4  5  1  0
  5  6  1  0
  6  7  1  0
  7  8  2  3
  8  9  1  0
  9 10  2  0
  9 11  1  0
 11 12  1  0
 12 13  1  0
 13 14  2  0
 14 15  1  0
 15 16  1  0
  8 17  1  0
 17 18  2  0
 18 19  1  0
 19 20  2  0
 20 21  1  0
 21 22  2  0
 22 23  1  0
 23 24  2  0
 24 25  1  0
  6  2  1  0
 16 12  2  0
 25 17  1  0
 25 21  1  0
  1 26  1  0
  1 27  1  0
  1 28  1  0
  2 29  1  0
  3 30  1  0
  3 31  1  0
  4 32  1  0
  4 33  1  0
  6 34  1  0
  7 35  1  0
 11 36  1  0
 13 37  1  0
 15 38  1  0
 16 39  1  0
 18 40  1  0
 19 41  1  0
 20 42  1  0
 24 43  1  0
M  END
>  <Energy>  (984) 
87.272439506658159

>  <compound_id>  (984) 
4465

>  <target_id>  (984) 
1

>  <reference_id>  (984) 
165

>  <inspiration_ids>  (984) 
[157, 165]

>  <energy_score>  (984) 
-11.022702676851594

>  <distance_score>  (984) 
1.783045528201071

>  <path>  (984) 
/opt/xchem-fragalysis-2/maxwin/BulkDock/SCRATCH/505735/C4465-P165/C4465-P165.minimised.mol

>  <scratch_subdir>  (984) 
/opt/xchem-fragalysis-2/maxwin/BulkDock/SCRATCH/505735/C4465-P165

>  <fragmenstein_runtime>  (984) 
3.6875109672546387

>  <fragmenstein_outcome>  (984) 
too moved

>  <fragmenstein_mode>  (984) 
expansion

>  <fragmenstein_error>  (984) 


$$$$
C126-P157
     RDKit          3D

 27 29  0  0  0  0  0  0  0  0999 V2000
    0.2698   -6.4119   35.6432 O   0  0  0  0  0  0  0  0  0  0  0  0
   -0.3819   -5.5079   35.4055 C   0  0  0  0  0  0  0  0  0  0  0  0
   -1.0232   -4.4581   36.3507 N   0  0  0  0  0  0  0  0  0  0  0  0
   -0.9012   -4.2931   37.6889 C   0  0  0  0  0  0  0  0  0  0  0  0
   -0.0040   -4.8940   38.5886 C   0  0  0  0  0  0  0  0  0  0  0  0
   -0.1343   -4.3921   39.8204 N   0  0  0  0  0  0  0  0  0  0  0  0
   -1.1770   -3.5510   39.7087 N   0  0  0  0  0  0  0  0  0  0  0  0
   -1.6315   -3.4098   38.4330 C   0  0  0  0  0  0  0  0  0  0  0  0
   -0.8030   -4.9069   34.0370 N   0  0  0  0  0  0  0  0  0  0  0  0
   -0.4343   -5.2457   32.7824 C   0  0  0  0  0  0  0  0  0  0  0  0
    0.1022   -4.3060   31.9805 C   0  0  0  0  0  0  0  0  0  0  0  0
    0.6756   -4.7068   30.7127 C   0  0  0  0  0  0  0  0  0  0  0  0
    0.5723   -5.9743   30.2828 C   0  0  0  0  0  0  0  0  0  0  0  0
   -0.1801   -6.9185   31.0240 C   0  0  0  0  0  0  0  0  0  0  0  0
   -0.6580   -8.1075   30.7364 N   0  0  0  0  0  0  0  0  0  0  0  0
   -1.2935   -8.5769   31.8602 N   0  0  0  0  0  0  0  0  0  0  0  0
   -1.1758   -7.6692   32.8064 C   0  0  0  0  0  0  0  0  0  0  0  0
   -0.5680   -6.5534   32.3016 N   0  0  0  0  0  0  0  0  0  0  0  0
   -1.6078   -3.8362   35.8187 H   0  0  0  0  0  0  0  0  0  0  0  0
    0.7501   -5.6468   38.3959 H   0  0  0  0  0  0  0  0  0  0  0  0
   -1.5108   -3.0915   40.5495 H   0  0  0  0  0  0  0  0  0  0  0  0
   -2.4303   -2.7240   38.1962 H   0  0  0  0  0  0  0  0  0  0  0  0
   -1.3193   -4.0533   34.1857 H   0  0  0  0  0  0  0  0  0  0  0  0
    0.2400   -3.2762   32.2954 H   0  0  0  0  0  0  0  0  0  0  0  0
    1.2427   -3.9702   30.1504 H   0  0  0  0  0  0  0  0  0  0  0  0
    1.0770   -6.2837   29.3857 H   0  0  0  0  0  0  0  0  0  0  0  0
   -1.5416   -7.7596   33.8197 H   0  0  0  0  0  0  0  0  0  0  0  0
  1  2  2  0
  2  3  1  0
  3  4  1  0
  4  5  1  0
  5  6  2  0
  6  7  1  0
  7  8  1  0
  2  9  1  0
  9 10  1  0
 10 11  2  0
 11 12  1  0
 12 13  2  0
 13 14  1  0
 14 15  2  0
 15 16  1  0
 16 17  2  0
 17 18  1  0
  8  4  2  0
 18 10  1  0
 18 14  1  0
  3 19  1  0
  5 20  1  0
  7 21  1  0
  8 22  1  0
  9 23  1  0
 11 24  1  0
 12 25  1  0
 13 26  1  0
 17 27  1  0
M  END
>  <Energy>  (985) 
31.947821464579079

>  <compound_id>  (985) 
126

>  <target_id>  (985) 
1

>  <reference_id>  (985) 
157

>  <inspiration_ids>  (985) 
[157, 168]

>  <energy_score>  (985) 
-24.509378039193564

>  <distance_score>  (985) 
1.7419755227005307

>  <path>  (985) 
/opt/xchem-fragalysis-2/maxwin/BulkDock/SCRATCH/505735/C126-P157/C126-P157.minimised.mol

>  <scratch_subdir>  (985) 
/opt/xchem-fragalysis-2/maxwin/BulkDock/SCRATCH/505735/C126-P157

>  <fragmenstein_runtime>  (985) 
2.3272337913513184

>  <fragmenstein_outcome>  (985) 
too moved

>  <fragmenstein_mode>  (985) 
expansion

>  <fragmenstein_error>  (985) 


$$$$
C126-P168
     RDKit          3D

 27 29  0  0  0  0  0  0  0  0999 V2000
   -0.9907   -6.3108   35.4051 O   0  0  0  0  0  0  0  0  0  0  0  0
   -0.1340   -5.5682   35.2623 C   0  0  0  0  0  0  0  0  0  0  0  0
    0.4835   -4.5378   36.2585 N   0  0  0  0  0  0  0  0  0  0  0  0
    0.1046   -4.1965   37.5179 C   0  0  0  0  0  0  0  0  0  0  0  0
    0.6762   -3.2749   38.4087 C   0  0  0  0  0  0  0  0  0  0  0  0
   -0.0344   -3.1573   39.5343 N   0  0  0  0  0  0  0  0  0  0  0  0
   -1.0589   -4.0158   39.3535 N   0  0  0  0  0  0  0  0  0  0  0  0
   -0.9896   -4.6885   38.1732 C   0  0  0  0  0  0  0  0  0  0  0  0
    0.7034   -5.2252   33.9863 N   0  0  0  0  0  0  0  0  0  0  0  0
    0.5672   -5.6594   32.6896 C   0  0  0  0  0  0  0  0  0  0  0  0
    1.2861   -4.9825   31.7631 C   0  0  0  0  0  0  0  0  0  0  0  0
    1.1709   -5.2930   30.3519 C   0  0  0  0  0  0  0  0  0  0  0  0
    0.3571   -6.2693   29.9239 C   0  0  0  0  0  0  0  0  0  0  0  0
   -0.3884   -7.0154   30.8687 C   0  0  0  0  0  0  0  0  0  0  0  0
   -1.2429   -7.9939   30.6948 N   0  0  0  0  0  0  0  0  0  0  0  0
   -1.6796   -8.3799   31.9244 N   0  0  0  0  0  0  0  0  0  0  0  0
   -1.0768   -7.6334   32.8237 C   0  0  0  0  0  0  0  0  0  0  0  0
   -0.2695   -6.7029   32.2263 N   0  0  0  0  0  0  0  0  0  0  0  0
    1.2794   -4.0970   35.8380 H   0  0  0  0  0  0  0  0  0  0  0  0
    1.5625   -2.6668   38.2895 H   0  0  0  0  0  0  0  0  0  0  0  0
   -1.7561   -4.1101   40.0870 H   0  0  0  0  0  0  0  0  0  0  0  0
   -1.7224   -5.4272   37.8986 H   0  0  0  0  0  0  0  0  0  0  0  0
    1.3293   -4.4640   34.1863 H   0  0  0  0  0  0  0  0  0  0  0  0
    1.9407   -4.1544   32.0207 H   0  0  0  0  0  0  0  0  0  0  0  0
    1.7389   -4.6914   29.6479 H   0  0  0  0  0  0  0  0  0  0  0  0
    0.2376   -6.4998   28.8715 H   0  0  0  0  0  0  0  0  0  0  0  0
   -1.1948   -7.7745   33.8826 H   0  0  0  0  0  0  0  0  0  0  0  0
  1  2  2  0
  2  3  1  0
  3  4  1  0
  4  5  1  0
  5  6  2  0
  6  7  1  0
  7  8  1  0
  2  9  1  0
  9 10  1  0
 10 11  2  0
 11 12  1  0
 12 13  2  0
 13 14  1  0
 14 15  2  0
 15 16  1  0
 16 17  2  0
 17 18  1  0
  8  4  2  0
 18 10  1  0
 18 14  1  0
  3 19  1  0
  5 20  1  0
  7 21  1  0
  8 22  1  0
  9 23  1  0
 11 24  1  0
 12 25  1  0
 13 26  1  0
 17 27  1  0
M  END
>  <Energy>  (986) 
23.314057192652477

>  <compound_id>  (986) 
126

>  <target_id>  (986) 
1

>  <reference_id>  (986) 
168

>  <inspiration_ids>  (986) 
[157, 168]

>  <energy_score>  (986) 
-33.1431423111195

>  <distance_score>  (986) 
1.1222119751665025

>  <path>  (986) 
/opt/xchem-fragalysis-2/maxwin/BulkDock/SCRATCH/505735/C126-P168/C126-P168.minimised.mol

>  <scratch_subdir>  (986) 
/opt/xchem-fragalysis-2/maxwin/BulkDock/SCRATCH/505735/C126-P168

>  <fragmenstein_runtime>  (986) 
2.302863597869873

>  <fragmenstein_outcome>  (986) 
too moved

>  <fragmenstein_mode>  (986) 
expansion

>  <fragmenstein_error>  (986) 


$$$$
C126-P157
     RDKit          3D

 27 29  0  0  0  0  0  0  0  0999 V2000
    1.8831   -5.1045   28.3291 O   0  0  0  0  0  0  0  0  0  0  0  0
    2.6070   -5.2250   29.2029 C   0  0  0  0  0  0  0  0  0  0  0  0
    2.3227   -5.3977   30.7382 N   0  0  0  0  0  0  0  0  0  0  0  0
    1.1316   -5.5404   31.4121 C   0  0  0  0  0  0  0  0  0  0  0  0
    0.9190   -5.8102   32.7859 C   0  0  0  0  0  0  0  0  0  0  0  0
   -0.2733   -6.3624   33.0242 N   0  0  0  0  0  0  0  0  0  0  0  0
   -0.8624   -6.3749   31.8224 N   0  0  0  0  0  0  0  0  0  0  0  0
   -0.0709   -5.8636   30.8308 C   0  0  0  0  0  0  0  0  0  0  0  0
    4.1648   -5.3722   29.2103 N   0  0  0  0  0  0  0  0  0  0  0  0
    5.0569   -5.4873   28.1617 C   0  0  0  0  0  0  0  0  0  0  0  0
    4.6642   -5.4874   26.8677 C   0  0  0  0  0  0  0  0  0  0  0  0
    5.4930   -6.1472   25.8609 C   0  0  0  0  0  0  0  0  0  0  0  0
    6.6148   -6.8124   26.1773 C   0  0  0  0  0  0  0  0  0  0  0  0
    7.0530   -6.8115   27.5226 C   0  0  0  0  0  0  0  0  0  0  0  0
    8.0292   -7.4330   28.1492 N   0  0  0  0  0  0  0  0  0  0  0  0
    7.9755   -7.0756   29.4753 N   0  0  0  0  0  0  0  0  0  0  0  0
    6.9675   -6.2509   29.6236 C   0  0  0  0  0  0  0  0  0  0  0  0
    6.3036   -6.0873   28.4404 N   0  0  0  0  0  0  0  0  0  0  0  0
    3.1846   -5.3954   31.2430 H   0  0  0  0  0  0  0  0  0  0  0  0
    1.6143   -5.7164   33.6094 H   0  0  0  0  0  0  0  0  0  0  0  0
   -1.8002   -6.7601   31.7625 H   0  0  0  0  0  0  0  0  0  0  0  0
   -0.3890   -5.8735   29.7994 H   0  0  0  0  0  0  0  0  0  0  0  0
    4.4984   -5.3771   30.1533 H   0  0  0  0  0  0  0  0  0  0  0  0
    3.6741   -5.1735   26.5543 H   0  0  0  0  0  0  0  0  0  0  0  0
    5.1417   -6.1980   24.8416 H   0  0  0  0  0  0  0  0  0  0  0  0
    7.1844   -7.3486   25.4257 H   0  0  0  0  0  0  0  0  0  0  0  0
    6.6869   -5.7715   30.5478 H   0  0  0  0  0  0  0  0  0  0  0  0
  1  2  2  0
  2  3  1  0
  3  4  1  0
  4  5  1  0
  5  6  2  0
  6  7  1  0
  7  8  1  0
  2  9  1  0
  9 10  1  0
 10 11  2  0
 11 12  1  0
 12 13  2  0
 13 14  1  0
 14 15  2  0
 15 16  1  0
 16 17  2  0
 17 18  1  0
  8  4  2  0
 18 10  1  0
 18 14  1  0
  3 19  1  0
  5 20  1  0
  7 21  1  0
  8 22  1  0
  9 23  1  0
 11 24  1  0
 12 25  1  0
 13 26  1  0
 17 27  1  0
M  END
>  <Energy>  (987) 
35.830210056407765

>  <compound_id>  (987) 
126

>  <target_id>  (987) 
1

>  <reference_id>  (987) 
157

>  <inspiration_ids>  (987) 
[157, 175]

>  <energy_score>  (987) 
-20.698488479917273

>  <distance_score>  (987) 
2.3517189130898837

>  <path>  (987) 
/opt/xchem-fragalysis-2/maxwin/BulkDock/SCRATCH/505735/C126-P157/C126-P157.minimised.mol

>  <scratch_subdir>  (987) 
/opt/xchem-fragalysis-2/maxwin/BulkDock/SCRATCH/505735/C126-P157

>  <fragmenstein_runtime>  (987) 
4.708139657974243

>  <fragmenstein_outcome>  (987) 
too moved

>  <fragmenstein_mode>  (987) 
expansion

>  <fragmenstein_error>  (987) 


$$$$
C126-P175
     RDKit          3D

 27 29  0  0  0  0  0  0  0  0999 V2000
    2.2097   -7.7503   28.2582 O   0  0  0  0  0  0  0  0  0  0  0  0
    2.4665   -6.7379   28.7275 C   0  0  0  0  0  0  0  0  0  0  0  0
    1.7739   -5.9620   29.9145 N   0  0  0  0  0  0  0  0  0  0  0  0
    0.7392   -6.3445   30.7507 C   0  0  0  0  0  0  0  0  0  0  0  0
    0.1176   -5.6892   31.8360 C   0  0  0  0  0  0  0  0  0  0  0  0
   -0.8373   -6.4275   32.4112 N   0  0  0  0  0  0  0  0  0  0  0  0
   -0.8247   -7.5720   31.7190 N   0  0  0  0  0  0  0  0  0  0  0  0
    0.0771   -7.5531   30.6928 C   0  0  0  0  0  0  0  0  0  0  0  0
    3.6304   -5.7426   28.4061 N   0  0  0  0  0  0  0  0  0  0  0  0
    4.6918   -5.8662   27.5456 C   0  0  0  0  0  0  0  0  0  0  0  0
    4.4679   -6.1256   26.2385 C   0  0  0  0  0  0  0  0  0  0  0  0
    5.5288   -6.6597   25.3960 C   0  0  0  0  0  0  0  0  0  0  0  0
    6.7040   -7.0404   25.9249 C   0  0  0  0  0  0  0  0  0  0  0  0
    6.9408   -6.8426   27.3121 C   0  0  0  0  0  0  0  0  0  0  0  0
    7.9165   -7.2008   28.1200 N   0  0  0  0  0  0  0  0  0  0  0  0
    7.6180   -6.7329   29.3806 N   0  0  0  0  0  0  0  0  0  0  0  0
    6.4671   -6.1082   29.3106 C   0  0  0  0  0  0  0  0  0  0  0  0
    5.9590   -6.1914   28.0471 N   0  0  0  0  0  0  0  0  0  0  0  0
    2.2002   -5.0578   30.0234 H   0  0  0  0  0  0  0  0  0  0  0  0
    0.3174   -4.7040   32.2376 H   0  0  0  0  0  0  0  0  0  0  0  0
   -1.4472   -8.3199   32.0173 H   0  0  0  0  0  0  0  0  0  0  0  0
    0.1877   -8.4138   30.0490 H   0  0  0  0  0  0  0  0  0  0  0  0
    3.6148   -4.9790   29.0634 H   0  0  0  0  0  0  0  0  0  0  0  0
    3.4815   -6.0517   25.7965 H   0  0  0  0  0  0  0  0  0  0  0  0
    5.3246   -6.8264   24.3400 H   0  0  0  0  0  0  0  0  0  0  0  0
    7.4762   -7.4947   25.3148 H   0  0  0  0  0  0  0  0  0  0  0  0
    5.9720   -5.6068   30.1263 H   0  0  0  0  0  0  0  0  0  0  0  0
  1  2  2  0
  2  3  1  0
  3  4  1  0
  4  5  1  0
  5  6  2  0
  6  7  1  0
  7  8  1  0
  2  9  1  0
  9 10  1  0
 10 11  2  0
 11 12  1  0
 12 13  2  0
 13 14  1  0
 14 15  2  0
 15 16  1  0
 16 17  2  0
 17 18  1  0
  8  4  2  0
 18 10  1  0
 18 14  1  0
  3 19  1  0
  5 20  1  0
  7 21  1  0
  8 22  1  0
  9 23  1  0
 11 24  1  0
 12 25  1  0
 13 26  1  0
 17 27  1  0
M  END
>  <Energy>  (988) 
42.561333008108704

>  <compound_id>  (988) 
126

>  <target_id>  (988) 
1

>  <reference_id>  (988) 
175

>  <inspiration_ids>  (988) 
[157, 175]

>  <energy_score>  (988) 
-13.96736552821443

>  <distance_score>  (988) 
1.8280027411110074

>  <path>  (988) 
/opt/xchem-fragalysis-2/maxwin/BulkDock/SCRATCH/505735/C126-P175/C126-P175.minimised.mol

>  <scratch_subdir>  (988) 
/opt/xchem-fragalysis-2/maxwin/BulkDock/SCRATCH/505735/C126-P175

>  <fragmenstein_runtime>  (988) 
4.991018295288086

>  <fragmenstein_outcome>  (988) 
too moved

>  <fragmenstein_mode>  (988) 
expansion

>  <fragmenstein_error>  (988) 


$$$$
C4467-P157
     RDKit          3D

 56 59  0  0  0  0  0  0  0  0999 V2000
    2.7940    1.6457   31.2644 C   0  0  0  0  0  0  0  0  0  0  0  0
    3.4941    0.5203   31.8092 N   0  0  0  0  0  0  0  0  0  0  0  0
    4.6049    0.4516   32.7129 C   0  0  0  0  0  0  0  0  0  0  0  0
    5.1841    1.3144   33.3070 O   0  0  0  0  0  0  0  0  0  0  0  0
    5.0401   -1.0003   32.9146 C   0  0  0  0  0  0  0  0  0  0  0  0
    4.4855   -1.6262   34.2081 C   0  0  0  0  0  0  0  0  0  0  0  0
    2.9526   -1.5262   34.3153 C   0  0  0  0  0  0  0  0  0  0  0  0
    2.3527   -2.7415   35.0091 C   0  0  0  0  0  0  0  0  0  0  0  0
    2.5890   -4.0483   34.1888 C   0  0  0  0  0  0  0  0  0  0  0  0
    2.4619   -5.2282   35.2169 C   0  0  0  0  0  0  0  0  0  0  0  0
    2.1306   -6.5614   34.5462 C   0  0  0  0  0  0  0  0  0  0  0  0
    0.8472   -6.4051   33.8436 C   0  0  0  0  0  0  0  0  0  0  0  0
   -0.1569   -7.2348   33.7073 N   0  0  0  0  0  0  0  0  0  0  0  0
   -1.2278   -6.4937   33.2522 N   0  0  0  0  0  0  0  0  0  0  0  0
   -0.8320   -5.2501   33.0901 C   0  0  0  0  0  0  0  0  0  0  0  0
   -1.5801   -4.1556   32.8463 N   0  0  0  0  0  0  0  0  0  0  0  0
    0.5047   -5.1964   33.3159 N   0  0  0  0  0  0  0  0  0  0  0  0
    1.4607   -4.1382   33.0625 C   0  0  0  0  0  0  0  0  0  0  0  0
    1.9449   -4.2679   31.7028 N   0  0  0  0  0  0  0  0  0  0  0  0
    2.4242   -3.2455   30.7458 C   0  0  0  0  0  0  0  0  0  0  0  0
    2.5979   -2.0952   30.8919 O   0  0  0  0  0  0  0  0  0  0  0  0
    2.6896   -4.1161   29.5647 N   0  0  0  0  0  0  0  0  0  0  0  0
    3.2849   -3.8378   28.3716 C   0  0  0  0  0  0  0  0  0  0  0  0
    3.6047   -4.7197   27.3239 C   0  0  0  0  0  0  0  0  0  0  0  0
    4.1901   -4.0948   26.3014 N   0  0  0  0  0  0  0  0  0  0  0  0
    4.2670   -2.8159   26.7121 N   0  0  0  0  0  0  0  0  0  0  0  0
    3.7159   -2.6109   27.9425 C   0  0  0  0  0  0  0  0  0  0  0  0
    4.0518   -4.0628   33.6295 C   0  0  0  0  0  0  0  0  0  0  0  0
    4.9759   -3.0818   34.3549 C   0  0  0  0  0  0  0  0  0  0  0  0
    3.0907    1.7645   30.2198 H   0  0  0  0  0  0  0  0  0  0  0  0
    1.7211    1.4506   31.3225 H   0  0  0  0  0  0  0  0  0  0  0  0
    3.0492    2.5473   31.8259 H   0  0  0  0  0  0  0  0  0  0  0  0
    3.3178   -0.4112   31.4261 H   0  0  0  0  0  0  0  0  0  0  0  0
    6.1380   -0.9956   32.9522 H   0  0  0  0  0  0  0  0  0  0  0  0
    4.7925   -1.6075   32.0397 H   0  0  0  0  0  0  0  0  0  0  0  0
    4.9123   -1.0598   35.0476 H   0  0  0  0  0  0  0  0  0  0  0  0
    2.6904   -0.6193   34.8737 H   0  0  0  0  0  0  0  0  0  0  0  0
    2.4876   -1.4220   33.3330 H   0  0  0  0  0  0  0  0  0  0  0  0
    2.7951   -2.8267   36.0111 H   0  0  0  0  0  0  0  0  0  0  0  0
    1.2798   -2.5828   35.1767 H   0  0  0  0  0  0  0  0  0  0  0  0
    3.3852   -5.3296   35.8012 H   0  0  0  0  0  0  0  0  0  0  0  0
    1.6694   -4.9986   35.9445 H   0  0  0  0  0  0  0  0  0  0  0  0
    2.9181   -6.8276   33.8443 H   0  0  0  0  0  0  0  0  0  0  0  0
    2.0607   -7.3541   35.2982 H   0  0  0  0  0  0  0  0  0  0  0  0
   -1.1556   -3.2355   32.8971 H   0  0  0  0  0  0  0  0  0  0  0  0
   -2.3818   -4.1295   33.4977 H   0  0  0  0  0  0  0  0  0  0  0  0
    0.9022   -3.1971   33.0658 H   0  0  0  0  0  0  0  0  0  0  0  0
    1.8333   -5.1416   31.2253 H   0  0  0  0  0  0  0  0  0  0  0  0
    2.5016   -5.0672   29.8059 H   0  0  0  0  0  0  0  0  0  0  0  0
    3.4377   -5.7856   27.2512 H   0  0  0  0  0  0  0  0  0  0  0  0
    4.6820   -2.1294   26.0877 H   0  0  0  0  0  0  0  0  0  0  0  0
    3.6859   -1.6265   28.3879 H   0  0  0  0  0  0  0  0  0  0  0  0
    4.1005   -3.8071   32.5718 H   0  0  0  0  0  0  0  0  0  0  0  0
    4.4803   -5.0699   33.6960 H   0  0  0  0  0  0  0  0  0  0  0  0
    5.9987   -3.1828   33.9726 H   0  0  0  0  0  0  0  0  0  0  0  0
    5.0249   -3.3486   35.4182 H   0  0  0  0  0  0  0  0  0  0  0  0
  1  2  1  0
  2  3  1  0
  3  4  2  0
  3  5  1  0
  5  6  1  0
  6  7  1  0
  7  8  1  0
  8  9  1  0
  9 10  1  0
 10 11  1  0
 11 12  1  0
 12 13  2  0
 13 14  1  0
 14 15  2  0
 15 16  1  0
 15 17  1  0
 17 18  1  0
 18 19  1  0
 19 20  1  0
 20 21  2  0
 20 22  1  0
 22 23  1  0
 23 24  1  0
 24 25  2  0
 25 26  1  0
 26 27  1  0
  9 28  1  0
 28 29  1  0
 29  6  1  0
 18  9  1  0
 27 23  2  0
 17 12  1  0
  1 30  1  0
  1 31  1  0
  1 32  1  0
  2 33  1  0
  5 34  1  0
  5 35  1  0
  6 36  1  0
  7 37  1  0
  7 38  1  0
  8 39  1  0
  8 40  1  0
 10 41  1  0
 10 42  1  0
 11 43  1  0
 11 44  1  0
 16 45  1  0
 16 46  1  0
 18 47  1  0
 19 48  1  0
 22 49  1  0
 24 50  1  0
 26 51  1  0
 27 52  1  0
 28 53  1  0
 28 54  1  0
 29 55  1  0
 29 56  1  0
M  END
>  <Energy>  (989) 
-40.661848006915939

>  <compound_id>  (989) 
4467

>  <target_id>  (989) 
1

>  <reference_id>  (989) 
157

>  <inspiration_ids>  (989) 
[157, 177]

>  <energy_score>  (989) 
-58.9449397537616

>  <distance_score>  (989) 
3.447221126067397

>  <path>  (989) 
/opt/xchem-fragalysis-2/maxwin/BulkDock/SCRATCH/505735/C4467-P157/C4467-P157.minimised.mol

>  <scratch_subdir>  (989) 
/opt/xchem-fragalysis-2/maxwin/BulkDock/SCRATCH/505735/C4467-P157

>  <fragmenstein_runtime>  (989) 
15.331770420074463

>  <fragmenstein_outcome>  (989) 
too moved

>  <fragmenstein_mode>  (989) 
expansion

>  <fragmenstein_error>  (989) 


$$$$
C4467-P177
     RDKit          3D

 56 59  0  0  0  0  0  0  0  0999 V2000
   -2.7622    0.5706   33.9578 C   0  0  0  0  0  0  0  0  0  0  0  0
   -1.3528    0.6341   34.2192 N   0  0  0  0  0  0  0  0  0  0  0  0
   -0.3203   -0.3527   34.0625 C   0  0  0  0  0  0  0  0  0  0  0  0
   -0.3833   -1.5038   33.7487 O   0  0  0  0  0  0  0  0  0  0  0  0
    1.0240    0.3097   34.4129 C   0  0  0  0  0  0  0  0  0  0  0  0
    2.3077   -0.5369   34.3036 C   0  0  0  0  0  0  0  0  0  0  0  0
    2.3815   -1.7206   35.2752 C   0  0  0  0  0  0  0  0  0  0  0  0
    2.0423   -3.0958   34.7012 C   0  0  0  0  0  0  0  0  0  0  0  0
    2.6097   -3.4094   33.2747 C   0  0  0  0  0  0  0  0  0  0  0  0
    3.5129   -4.6809   33.3297 C   0  0  0  0  0  0  0  0  0  0  0  0
    2.7720   -5.9481   33.7889 C   0  0  0  0  0  0  0  0  0  0  0  0
    1.3800   -6.0202   33.2857 C   0  0  0  0  0  0  0  0  0  0  0  0
    0.5008   -6.9828   33.4506 N   0  0  0  0  0  0  0  0  0  0  0  0
   -0.7448   -6.4493   33.1798 N   0  0  0  0  0  0  0  0  0  0  0  0
   -0.5818   -5.1870   32.8480 C   0  0  0  0  0  0  0  0  0  0  0  0
   -1.5029   -4.2075   32.7537 N   0  0  0  0  0  0  0  0  0  0  0  0
    0.7493   -4.9447   32.7250 N   0  0  0  0  0  0  0  0  0  0  0  0
    1.4262   -3.7379   32.2945 C   0  0  0  0  0  0  0  0  0  0  0  0
    1.8303   -3.8501   30.9056 N   0  0  0  0  0  0  0  0  0  0  0  0
    1.8563   -2.8399   29.8212 C   0  0  0  0  0  0  0  0  0  0  0  0
    1.4821   -1.7300   29.8139 O   0  0  0  0  0  0  0  0  0  0  0  0
    2.5195   -3.6377   28.7514 N   0  0  0  0  0  0  0  0  0  0  0  0
    2.9523   -3.2755   27.5115 C   0  0  0  0  0  0  0  0  0  0  0  0
    3.6180   -4.0655   26.5597 C   0  0  0  0  0  0  0  0  0  0  0  0
    3.9395   -3.3704   25.4684 N   0  0  0  0  0  0  0  0  0  0  0  0
    3.4326   -2.1462   25.6994 N   0  0  0  0  0  0  0  0  0  0  0  0
    2.8455   -2.0394   26.9292 C   0  0  0  0  0  0  0  0  0  0  0  0
    3.4528   -2.2089   32.7787 C   0  0  0  0  0  0  0  0  0  0  0  0
    2.6719   -0.8982   32.8605 C   0  0  0  0  0  0  0  0  0  0  0  0
   -3.0673   -0.4709   33.8330 H   0  0  0  0  0  0  0  0  0  0  0  0
   -3.2940    1.0267   34.7954 H   0  0  0  0  0  0  0  0  0  0  0  0
   -2.9690    1.1283   33.0415 H   0  0  0  0  0  0  0  0  0  0  0  0
   -0.9249    1.5320   34.4153 H   0  0  0  0  0  0  0  0  0  0  0  0
    0.9427    0.6801   35.4436 H   0  0  0  0  0  0  0  0  0  0  0  0
    1.1386    1.1861   33.7607 H   0  0  0  0  0  0  0  0  0  0  0  0
    3.1018    0.1467   34.6432 H   0  0  0  0  0  0  0  0  0  0  0  0
    3.4140   -1.7774   35.6491 H   0  0  0  0  0  0  0  0  0  0  0  0
    1.7672   -1.5310   36.1640 H   0  0  0  0  0  0  0  0  0  0  0  0
    2.4127   -3.8274   35.4294 H   0  0  0  0  0  0  0  0  0  0  0  0
    0.9556   -3.2183   34.7271 H   0  0  0  0  0  0  0  0  0  0  0  0
    3.9410   -4.8604   32.3355 H   0  0  0  0  0  0  0  0  0  0  0  0
    4.3684   -4.5113   33.9960 H   0  0  0  0  0  0  0  0  0  0  0  0
    3.3347   -6.8402   33.5086 H   0  0  0  0  0  0  0  0  0  0  0  0
    2.7332   -5.9646   34.8850 H   0  0  0  0  0  0  0  0  0  0  0  0
   -1.1862   -3.2402   32.8816 H   0  0  0  0  0  0  0  0  0  0  0  0
   -2.2306   -4.3298   33.4715 H   0  0  0  0  0  0  0  0  0  0  0  0
    0.7137   -2.9182   32.3064 H   0  0  0  0  0  0  0  0  0  0  0  0
    2.3058   -4.6735   30.6007 H   0  0  0  0  0  0  0  0  0  0  0  0
    2.6319   -4.5795   29.0628 H   0  0  0  0  0  0  0  0  0  0  0  0
    3.8974   -5.1098   26.6104 H   0  0  0  0  0  0  0  0  0  0  0  0
    3.5316   -1.4337   24.9736 H   0  0  0  0  0  0  0  0  0  0  0  0
    2.4148   -1.1066   27.2652 H   0  0  0  0  0  0  0  0  0  0  0  0
    3.8013   -2.3666   31.7524 H   0  0  0  0  0  0  0  0  0  0  0  0
    4.3662   -2.1192   33.3824 H   0  0  0  0  0  0  0  0  0  0  0  0
    1.7752   -0.9482   32.2383 H   0  0  0  0  0  0  0  0  0  0  0  0
    3.2804   -0.0916   32.4325 H   0  0  0  0  0  0  0  0  0  0  0  0
  1  2  1  0
  2  3  1  0
  3  4  2  0
  3  5  1  0
  5  6  1  0
  6  7  1  0
  7  8  1  0
  8  9  1  0
  9 10  1  0
 10 11  1  0
 11 12  1  0
 12 13  2  0
 13 14  1  0
 14 15  2  0
 15 16  1  0
 15 17  1  0
 17 18  1  0
 18 19  1  0
 19 20  1  0
 20 21  2  0
 20 22  1  0
 22 23  1  0
 23 24  1  0
 24 25  2  0
 25 26  1  0
 26 27  1  0
  9 28  1  0
 28 29  1  0
 29  6  1  0
 18  9  1  0
 27 23  2  0
 17 12  1  0
  1 30  1  0
  1 31  1  0
  1 32  1  0
  2 33  1  0
  5 34  1  0
  5 35  1  0
  6 36  1  0
  7 37  1  0
  7 38  1  0
  8 39  1  0
  8 40  1  0
 10 41  1  0
 10 42  1  0
 11 43  1  0
 11 44  1  0
 16 45  1  0
 16 46  1  0
 18 47  1  0
 19 48  1  0
 22 49  1  0
 24 50  1  0
 26 51  1  0
 27 52  1  0
 28 53  1  0
 28 54  1  0
 29 55  1  0
 29 56  1  0
M  END
>  <Energy>  (990) 
-47.889009394535798

>  <compound_id>  (990) 
4467

>  <target_id>  (990) 
1

>  <reference_id>  (990) 
177

>  <inspiration_ids>  (990) 
[157, 177]

>  <energy_score>  (990) 
-66.17210114138192

>  <distance_score>  (990) 
3.598847787600827

>  <path>  (990) 
/opt/xchem-fragalysis-2/maxwin/BulkDock/SCRATCH/505735/C4467-P177/C4467-P177.minimised.mol

>  <scratch_subdir>  (990) 
/opt/xchem-fragalysis-2/maxwin/BulkDock/SCRATCH/505735/C4467-P177

>  <fragmenstein_runtime>  (990) 
13.83036756515503

>  <fragmenstein_outcome>  (990) 
too moved

>  <fragmenstein_mode>  (990) 
expansion

>  <fragmenstein_error>  (990) 


$$$$
C4468-P157
     RDKit          3D

 54 57  0  0  0  0  0  0  0  0999 V2000
    4.0253   -0.0349   33.6774 C   0  0  0  0  0  0  0  0  0  0  0  0
    4.3385   -1.7863   33.6083 S   0  0  0  0  0  0  0  0  0  0  0  0
    4.9373   -2.1719   34.8686 O   0  0  0  0  0  0  0  0  0  0  0  0
    5.0010   -2.0847   32.3608 O   0  0  0  0  0  0  0  0  0  0  0  0
    2.8112   -2.4285   33.6273 N   0  0  0  0  0  0  0  0  0  0  0  0
    1.7787   -2.1623   32.6289 C   0  0  0  0  0  0  0  0  0  0  0  0
    2.2990   -2.4547   31.2365 C   0  0  0  0  0  0  0  0  0  0  0  0
    2.7704   -3.9091   31.0981 C   0  0  0  0  0  0  0  0  0  0  0  0
    2.1517   -4.8646   32.1237 C   0  0  0  0  0  0  0  0  0  0  0  0
    0.6713   -4.5301   32.4029 C   0  0  0  0  0  0  0  0  0  0  0  0
   -0.1174   -4.6140   31.0524 C   0  0  0  0  0  0  0  0  0  0  0  0
   -0.0576   -6.0121   30.4539 C   0  0  0  0  0  0  0  0  0  0  0  0
   -0.5939   -6.9568   31.4403 C   0  0  0  0  0  0  0  0  0  0  0  0
   -1.2219   -8.0809   31.2028 N   0  0  0  0  0  0  0  0  0  0  0  0
   -1.6586   -8.5511   32.4091 N   0  0  0  0  0  0  0  0  0  0  0  0
   -1.2986   -7.7148   33.3554 C   0  0  0  0  0  0  0  0  0  0  0  0
   -1.5513   -7.8135   34.6745 N   0  0  0  0  0  0  0  0  0  0  0  0
   -0.5822   -6.7020   32.7869 N   0  0  0  0  0  0  0  0  0  0  0  0
    0.0071   -5.5315   33.4364 C   0  0  0  0  0  0  0  0  0  0  0  0
    0.8830   -5.9282   34.5374 N   0  0  0  0  0  0  0  0  0  0  0  0
    1.6781   -5.0604   35.5553 C   0  0  0  0  0  0  0  0  0  0  0  0
    1.6895   -3.9293   35.7092 O   0  0  0  0  0  0  0  0  0  0  0  0
    2.4641   -6.1861   36.2964 N   0  0  0  0  0  0  0  0  0  0  0  0
    3.4317   -6.1035   37.2551 C   0  0  0  0  0  0  0  0  0  0  0  0
    4.0810   -7.1451   37.9464 C   0  0  0  0  0  0  0  0  0  0  0  0
    4.9999   -6.6909   38.8033 N   0  0  0  0  0  0  0  0  0  0  0  0
    4.9348   -5.3542   38.6533 N   0  0  0  0  0  0  0  0  0  0  0  0
    4.0013   -4.9556   37.7415 C   0  0  0  0  0  0  0  0  0  0  0  0
    0.5552   -3.0639   32.9324 C   0  0  0  0  0  0  0  0  0  0  0  0
    3.5277    0.2780   32.7581 H   0  0  0  0  0  0  0  0  0  0  0  0
    3.4107    0.1812   34.5531 H   0  0  0  0  0  0  0  0  0  0  0  0
    4.9877    0.4741   33.7663 H   0  0  0  0  0  0  0  0  0  0  0  0
    2.4896   -2.6752   34.5771 H   0  0  0  0  0  0  0  0  0  0  0  0
    1.4637   -1.1171   32.7194 H   0  0  0  0  0  0  0  0  0  0  0  0
    3.0988   -1.7699   30.9380 H   0  0  0  0  0  0  0  0  0  0  0  0
    1.5029   -2.2517   30.5105 H   0  0  0  0  0  0  0  0  0  0  0  0
    3.8604   -3.9714   31.1840 H   0  0  0  0  0  0  0  0  0  0  0  0
    2.5514   -4.2543   30.0801 H   0  0  0  0  0  0  0  0  0  0  0  0
    2.2702   -5.8948   31.7794 H   0  0  0  0  0  0  0  0  0  0  0  0
    2.7442   -4.8266   33.0432 H   0  0  0  0  0  0  0  0  0  0  0  0
    0.2333   -3.9022   30.3025 H   0  0  0  0  0  0  0  0  0  0  0  0
   -1.1636   -4.3375   31.2441 H   0  0  0  0  0  0  0  0  0  0  0  0
    0.9547   -6.2955   30.1561 H   0  0  0  0  0  0  0  0  0  0  0  0
   -0.6596   -6.0450   29.5465 H   0  0  0  0  0  0  0  0  0  0  0  0
   -0.9945   -7.3158   35.3586 H   0  0  0  0  0  0  0  0  0  0  0  0
   -1.6980   -8.7971   34.9676 H   0  0  0  0  0  0  0  0  0  0  0  0
   -0.8466   -5.0206   33.9010 H   0  0  0  0  0  0  0  0  0  0  0  0
    1.1671   -6.8875   34.6169 H   0  0  0  0  0  0  0  0  0  0  0  0
    2.1599   -7.0825   35.9679 H   0  0  0  0  0  0  0  0  0  0  0  0
    3.9281   -8.2129   37.8674 H   0  0  0  0  0  0  0  0  0  0  0  0
    5.5606   -4.7736   39.2024 H   0  0  0  0  0  0  0  0  0  0  0  0
    3.8485   -3.9098   37.5128 H   0  0  0  0  0  0  0  0  0  0  0  0
   -0.3221   -2.5910   32.4689 H   0  0  0  0  0  0  0  0  0  0  0  0
    0.3313   -3.0353   34.0021 H   0  0  0  0  0  0  0  0  0  0  0  0
  1  2  1  0
  2  3  2  0
  2  4  2  0
  2  5  1  0
  5  6  1  0
  6  7  1  0
  7  8  1  0
  8  9  1  0
  9 10  1  0
 10 11  1  0
 11 12  1  0
 12 13  1  0
 13 14  2  0
 14 15  1  0
 15 16  2  0
 16 17  1  0
 16 18  1  0
 18 19  1  0
 19 20  1  0
 20 21  1  0
 21 22  2  0
 21 23  1  0
 23 24  1  0
 24 25  1  0
 25 26  2  0
 26 27  1  0
 27 28  1  0
 10 29  1  0
 29  6  1  0
 19 10  1  0
 28 24  2  0
 18 13  1  0
  1 30  1  0
  1 31  1  0
  1 32  1  0
  5 33  1  0
  6 34  1  0
  7 35  1  0
  7 36  1  0
  8 37  1  0
  8 38  1  0
  9 39  1  0
  9 40  1  0
 11 41  1  0
 11 42  1  0
 12 43  1  0
 12 44  1  0
 17 45  1  0
 17 46  1  0
 19 47  1  0
 20 48  1  0
 23 49  1  0
 25 50  1  0
 27 51  1  0
 28 52  1  0
 29 53  1  0
 29 54  1  0
M  END
>  <Energy>  (991) 
-94.087888003158866

>  <compound_id>  (991) 
4468

>  <target_id>  (991) 
1

>  <reference_id>  (991) 
157

>  <inspiration_ids>  (991) 
[157, 183]

>  <energy_score>  (991) 
-48.287417965262854

>  <distance_score>  (991) 
2.198280070488051

>  <path>  (991) 
/opt/xchem-fragalysis-2/maxwin/BulkDock/SCRATCH/505735/C4468-P157/C4468-P157.minimised.mol

>  <scratch_subdir>  (991) 
/opt/xchem-fragalysis-2/maxwin/BulkDock/SCRATCH/505735/C4468-P157

>  <fragmenstein_runtime>  (991) 
4.854636192321777

>  <fragmenstein_outcome>  (991) 
too moved

>  <fragmenstein_mode>  (991) 
expansion

>  <fragmenstein_error>  (991) 


$$$$
C4468-P183
     RDKit          3D

 54 57  0  0  0  0  0  0  0  0999 V2000
    5.3268   -1.7456   30.5286 C   0  0  0  0  0  0  0  0  0  0  0  0
    3.8758   -2.6466   31.0268 S   0  0  0  0  0  0  0  0  0  0  0  0
    4.2571   -4.0324   31.1874 O   0  0  0  0  0  0  0  0  0  0  0  0
    2.7827   -2.2430   30.1753 O   0  0  0  0  0  0  0  0  0  0  0  0
    3.5978   -1.9935   32.5430 N   0  0  0  0  0  0  0  0  0  0  0  0
    2.4546   -2.4190   33.3897 C   0  0  0  0  0  0  0  0  0  0  0  0
    1.2128   -1.5932   33.0952 C   0  0  0  0  0  0  0  0  0  0  0  0
   -0.0516   -2.3626   33.4345 C   0  0  0  0  0  0  0  0  0  0  0  0
   -0.1413   -3.5991   32.5514 C   0  0  0  0  0  0  0  0  0  0  0  0
    1.0191   -4.6019   32.7660 C   0  0  0  0  0  0  0  0  0  0  0  0
    1.4527   -5.1745   31.3891 C   0  0  0  0  0  0  0  0  0  0  0  0
    0.3777   -5.9632   30.6475 C   0  0  0  0  0  0  0  0  0  0  0  0
   -0.3759   -6.8529   31.5460 C   0  0  0  0  0  0  0  0  0  0  0  0
   -1.1981   -7.8211   31.2150 N   0  0  0  0  0  0  0  0  0  0  0  0
   -1.7098   -8.3294   32.3833 N   0  0  0  0  0  0  0  0  0  0  0  0
   -1.2054   -7.6595   33.3976 C   0  0  0  0  0  0  0  0  0  0  0  0
   -1.4495   -7.8349   34.7145 N   0  0  0  0  0  0  0  0  0  0  0  0
   -0.3380   -6.7316   32.9074 N   0  0  0  0  0  0  0  0  0  0  0  0
    0.5202   -5.8211   33.6383 C   0  0  0  0  0  0  0  0  0  0  0  0
    1.6473   -6.5200   34.2427 N   0  0  0  0  0  0  0  0  0  0  0  0
    1.8083   -7.1269   35.6576 C   0  0  0  0  0  0  0  0  0  0  0  0
    1.0551   -7.2250   36.5058 O   0  0  0  0  0  0  0  0  0  0  0  0
    3.3038   -7.5628   35.5835 N   0  0  0  0  0  0  0  0  0  0  0  0
    4.1188   -8.0905   36.5435 C   0  0  0  0  0  0  0  0  0  0  0  0
    5.4910   -8.3994   36.4700 C   0  0  0  0  0  0  0  0  0  0  0  0
    5.9594   -8.9017   37.6160 N   0  0  0  0  0  0  0  0  0  0  0  0
    4.8818   -8.9062   38.4224 N   0  0  0  0  0  0  0  0  0  0  0  0
    3.7540   -8.4317   37.8204 C   0  0  0  0  0  0  0  0  0  0  0  0
    2.2227   -3.9296   33.5214 C   0  0  0  0  0  0  0  0  0  0  0  0
    6.1311   -1.9489   31.2380 H   0  0  0  0  0  0  0  0  0  0  0  0
    5.6130   -2.0924   29.5332 H   0  0  0  0  0  0  0  0  0  0  0  0
    5.0905   -0.6804   30.4961 H   0  0  0  0  0  0  0  0  0  0  0  0
    3.6588   -0.9721   32.5195 H   0  0  0  0  0  0  0  0  0  0  0  0
    2.7826   -2.1059   34.3941 H   0  0  0  0  0  0  0  0  0  0  0  0
    1.1776   -1.2892   32.0424 H   0  0  0  0  0  0  0  0  0  0  0  0
    1.2436   -0.6603   33.6717 H   0  0  0  0  0  0  0  0  0  0  0  0
   -0.9232   -1.7237   33.2508 H   0  0  0  0  0  0  0  0  0  0  0  0
   -0.0754   -2.6368   34.4957 H   0  0  0  0  0  0  0  0  0  0  0  0
   -0.1613   -3.2570   31.5081 H   0  0  0  0  0  0  0  0  0  0  0  0
   -1.1129   -4.0783   32.7193 H   0  0  0  0  0  0  0  0  0  0  0  0
    2.3129   -5.8295   31.5408 H   0  0  0  0  0  0  0  0  0  0  0  0
    1.7690   -4.3791   30.7183 H   0  0  0  0  0  0  0  0  0  0  0  0
    0.8580   -6.5547   29.8643 H   0  0  0  0  0  0  0  0  0  0  0  0
   -0.3146   -5.2733   30.1550 H   0  0  0  0  0  0  0  0  0  0  0  0
   -0.7289   -7.5874   35.3950 H   0  0  0  0  0  0  0  0  0  0  0  0
   -1.6942   -8.8215   34.9134 H   0  0  0  0  0  0  0  0  0  0  0  0
   -0.0802   -5.4349   34.4723 H   0  0  0  0  0  0  0  0  0  0  0  0
    2.5328   -6.5200   33.7732 H   0  0  0  0  0  0  0  0  0  0  0  0
    3.7025   -7.2553   34.7174 H   0  0  0  0  0  0  0  0  0  0  0  0
    6.1723   -8.2843   35.6375 H   0  0  0  0  0  0  0  0  0  0  0  0
    4.9891   -9.2474   39.3723 H   0  0  0  0  0  0  0  0  0  0  0  0
    2.8094   -8.3834   38.3462 H   0  0  0  0  0  0  0  0  0  0  0  0
    3.1550   -4.4779   33.3487 H   0  0  0  0  0  0  0  0  0  0  0  0
    2.0254   -4.0652   34.5967 H   0  0  0  0  0  0  0  0  0  0  0  0
  1  2  1  0
  2  3  2  0
  2  4  2  0
  2  5  1  0
  5  6  1  0
  6  7  1  0
  7  8  1  0
  8  9  1  0
  9 10  1  0
 10 11  1  0
 11 12  1  0
 12 13  1  0
 13 14  2  0
 14 15  1  0
 15 16  2  0
 16 17  1  0
 16 18  1  0
 18 19  1  0
 19 20  1  0
 20 21  1  0
 21 22  2  0
 21 23  1  0
 23 24  1  0
 24 25  1  0
 25 26  2  0
 26 27  1  0
 27 28  1  0
 10 29  1  0
 29  6  1  0
 19 10  1  0
 28 24  2  0
 18 13  1  0
  1 30  1  0
  1 31  1  0
  1 32  1  0
  5 33  1  0
  6 34  1  0
  7 35  1  0
  7 36  1  0
  8 37  1  0
  8 38  1  0
  9 39  1  0
  9 40  1  0
 11 41  1  0
 11 42  1  0
 12 43  1  0
 12 44  1  0
 17 45  1  0
 17 46  1  0
 19 47  1  0
 20 48  1  0
 23 49  1  0
 25 50  1  0
 27 51  1  0
 28 52  1  0
 29 53  1  0
 29 54  1  0
M  END
>  <Energy>  (992) 
-88.732468458612459

>  <compound_id>  (992) 
4468

>  <target_id>  (992) 
1

>  <reference_id>  (992) 
183

>  <inspiration_ids>  (992) 
[157, 183]

>  <energy_score>  (992) 
-42.931998420715246

>  <distance_score>  (992) 
1.8785226910830513

>  <path>  (992) 
/opt/xchem-fragalysis-2/maxwin/BulkDock/SCRATCH/505735/C4468-P183/C4468-P183.minimised.mol

>  <scratch_subdir>  (992) 
/opt/xchem-fragalysis-2/maxwin/BulkDock/SCRATCH/505735/C4468-P183

>  <fragmenstein_runtime>  (992) 
2.8733468055725098

>  <fragmenstein_outcome>  (992) 
too moved

>  <fragmenstein_mode>  (992) 
expansion

>  <fragmenstein_error>  (992) 


$$$$
C4469-P157
     RDKit          3D

 49 52  0  0  0  0  0  0  0  0999 V2000
    3.7348    1.0210   34.4058 C   0  0  0  0  0  0  0  0  0  0  0  0
    3.4589   -0.4400   34.2999 N   0  0  0  0  0  0  0  0  0  0  0  0
    4.5791   -0.3488   33.2386 C   0  0  0  0  0  0  0  0  0  0  0  0
    5.1027   -1.7300   32.8408 C   0  0  0  0  0  0  0  0  0  0  0  0
    5.9642   -2.4301   33.6984 C   0  0  0  0  0  0  0  0  0  0  0  0
    6.4418   -3.6926   33.3463 C   0  0  0  0  0  0  0  0  0  0  0  0
    6.0618   -4.2682   32.1358 C   0  0  0  0  0  0  0  0  0  0  0  0
    5.2012   -3.5853   31.2780 C   0  0  0  0  0  0  0  0  0  0  0  0
    4.7236   -2.3212   31.6259 C   0  0  0  0  0  0  0  0  0  0  0  0
    2.3006   -1.1532   33.7517 C   0  0  0  0  0  0  0  0  0  0  0  0
    1.3509   -0.7416   33.1840 O   0  0  0  0  0  0  0  0  0  0  0  0
    2.6261   -2.5202   34.2046 N   0  0  0  0  0  0  0  0  0  0  0  0
    1.9631   -3.7181   34.0162 C   0  0  0  0  0  0  0  0  0  0  0  0
    2.5723   -4.8320   34.7472 C   0  0  0  0  0  0  0  0  0  0  0  0
    2.1453   -6.0977   34.6263 C   0  0  0  0  0  0  0  0  0  0  0  0
    1.0545   -6.3779   33.7792 C   0  0  0  0  0  0  0  0  0  0  0  0
    0.4551   -7.5079   33.4905 N   0  0  0  0  0  0  0  0  0  0  0  0
   -0.5918   -7.2242   32.6609 N   0  0  0  0  0  0  0  0  0  0  0  0
   -0.6014   -5.9239   32.4765 C   0  0  0  0  0  0  0  0  0  0  0  0
    0.4622   -5.3224   33.0975 N   0  0  0  0  0  0  0  0  0  0  0  0
    0.9212   -3.9842   33.1763 C   0  0  0  0  0  0  0  0  0  0  0  0
    0.4349   -2.9682   32.3965 N   0  0  0  0  0  0  0  0  0  0  0  0
   -0.2709   -2.9982   31.0892 C   0  0  0  0  0  0  0  0  0  0  0  0
   -0.6481   -3.9094   30.4531 O   0  0  0  0  0  0  0  0  0  0  0  0
   -0.2715   -1.5359   30.7753 N   0  0  0  0  0  0  0  0  0  0  0  0
   -0.6230   -0.8717   29.6393 C   0  0  0  0  0  0  0  0  0  0  0  0
   -0.4626    0.4851   29.3118 C   0  0  0  0  0  0  0  0  0  0  0  0
   -0.8553    0.7580   28.0642 N   0  0  0  0  0  0  0  0  0  0  0  0
   -1.2917   -0.4335   27.6038 N   0  0  0  0  0  0  0  0  0  0  0  0
   -1.1784   -1.4331   28.5241 C   0  0  0  0  0  0  0  0  0  0  0  0
    4.6745    1.2632   34.9215 H   0  0  0  0  0  0  0  0  0  0  0  0
    3.5263    1.6136   33.5025 H   0  0  0  0  0  0  0  0  0  0  0  0
    2.9590    1.3705   35.1027 H   0  0  0  0  0  0  0  0  0  0  0  0
    5.4985    0.1713   33.5593 H   0  0  0  0  0  0  0  0  0  0  0  0
    4.1884    0.1086   32.3138 H   0  0  0  0  0  0  0  0  0  0  0  0
    6.2742   -1.9900   34.6443 H   0  0  0  0  0  0  0  0  0  0  0  0
    7.1181   -4.2243   34.0111 H   0  0  0  0  0  0  0  0  0  0  0  0
    6.4424   -5.2475   31.8575 H   0  0  0  0  0  0  0  0  0  0  0  0
    4.9035   -4.0350   30.3339 H   0  0  0  0  0  0  0  0  0  0  0  0
    4.0490   -1.8068   30.9439 H   0  0  0  0  0  0  0  0  0  0  0  0
    3.4882   -2.4982   34.7330 H   0  0  0  0  0  0  0  0  0  0  0  0
    3.4042   -4.6220   35.4139 H   0  0  0  0  0  0  0  0  0  0  0  0
    2.6008   -6.9070   35.1853 H   0  0  0  0  0  0  0  0  0  0  0  0
   -1.3521   -5.3898   31.9279 H   0  0  0  0  0  0  0  0  0  0  0  0
    0.5383   -2.0131   32.6967 H   0  0  0  0  0  0  0  0  0  0  0  0
    0.2036   -1.0361   31.5111 H   0  0  0  0  0  0  0  0  0  0  0  0
   -0.0544    1.2861   29.9122 H   0  0  0  0  0  0  0  0  0  0  0  0
   -1.6134   -0.5182   26.6405 H   0  0  0  0  0  0  0  0  0  0  0  0
   -1.4749   -2.4430   28.2847 H   0  0  0  0  0  0  0  0  0  0  0  0
  1  2  1  0
  2  3  1  0
  3  4  1  0
  4  5  2  0
  5  6  1  0
  6  7  2  0
  7  8  1  0
  8  9  2  0
  2 10  1  0
 10 11  2  0
 10 12  1  0
 12 13  1  0
 13 14  1  0
 14 15  2  0
 15 16  1  0
 16 17  2  0
 17 18  1  0
 18 19  2  0
 19 20  1  0
 20 21  1  0
 21 22  1  0
 22 23  1  0
 23 24  2  0
 23 25  1  0
 25 26  1  0
 26 27  1  0
 27 28  2  0
 28 29  1  0
 29 30  1  0
  9  4  1  0
 21 13  2  0
 30 26  2  0
 20 16  1  0
  1 31  1  0
  1 32  1  0
  1 33  1  0
  3 34  1  0
  3 35  1  0
  5 36  1  0
  6 37  1  0
  7 38  1  0
  8 39  1  0
  9 40  1  0
 12 41  1  0
 14 42  1  0
 15 43  1  0
 19 44  1  0
 22 45  1  0
 25 46  1  0
 27 47  1  0
 29 48  1  0
 30 49  1  0
M  END
>  <Energy>  (993) 
32.585556341102603

>  <compound_id>  (993) 
4469

>  <target_id>  (993) 
1

>  <reference_id>  (993) 
157

>  <inspiration_ids>  (993) 
[157, 186]

>  <energy_score>  (993) 
-19.026020806994552

>  <distance_score>  (993) 
2.828543767016715

>  <path>  (993) 
/opt/xchem-fragalysis-2/maxwin/BulkDock/SCRATCH/505735/C4469-P157/C4469-P157.minimised.mol

>  <scratch_subdir>  (993) 
/opt/xchem-fragalysis-2/maxwin/BulkDock/SCRATCH/505735/C4469-P157

>  <fragmenstein_runtime>  (993) 
7.640345811843872

>  <fragmenstein_outcome>  (993) 
too moved

>  <fragmenstein_mode>  (993) 
expansion

>  <fragmenstein_error>  (993) 


$$$$
C4469-P186
     RDKit          3D

 49 52  0  0  0  0  0  0  0  0999 V2000
    4.3644    0.6365   34.5428 C   0  0  0  0  0  0  0  0  0  0  0  0
    4.0270   -0.8116   34.4440 N   0  0  0  0  0  0  0  0  0  0  0  0
    4.9411   -0.7121   33.2036 C   0  0  0  0  0  0  0  0  0  0  0  0
    5.4090   -2.0833   32.7222 C   0  0  0  0  0  0  0  0  0  0  0  0
    6.3603   -2.7998   33.4639 C   0  0  0  0  0  0  0  0  0  0  0  0
    6.8273   -4.0337   33.0125 C   0  0  0  0  0  0  0  0  0  0  0  0
    6.3509   -4.5603   31.8145 C   0  0  0  0  0  0  0  0  0  0  0  0
    5.3983   -3.8619   31.0738 C   0  0  0  0  0  0  0  0  0  0  0  0
    4.9258   -2.6294   31.5248 C   0  0  0  0  0  0  0  0  0  0  0  0
    2.7660   -1.4742   34.0911 C   0  0  0  0  0  0  0  0  0  0  0  0
    1.7444   -1.0172   33.7160 O   0  0  0  0  0  0  0  0  0  0  0  0
    3.1211   -2.8658   34.4370 N   0  0  0  0  0  0  0  0  0  0  0  0
    2.3947   -4.0369   34.3355 C   0  0  0  0  0  0  0  0  0  0  0  0
    3.0637   -5.2008   34.9223 C   0  0  0  0  0  0  0  0  0  0  0  0
    2.5210   -6.4292   34.9083 C   0  0  0  0  0  0  0  0  0  0  0  0
    1.2500   -6.6151   34.3242 C   0  0  0  0  0  0  0  0  0  0  0  0
    0.4872   -7.6747   34.2176 N   0  0  0  0  0  0  0  0  0  0  0  0
   -0.6804   -7.2985   33.6126 N   0  0  0  0  0  0  0  0  0  0  0  0
   -0.5988   -6.0095   33.3812 C   0  0  0  0  0  0  0  0  0  0  0  0
    0.6275   -5.5198   33.7500 N   0  0  0  0  0  0  0  0  0  0  0  0
    1.1996   -4.2326   33.7105 C   0  0  0  0  0  0  0  0  0  0  0  0
    0.6339   -3.2097   33.0074 N   0  0  0  0  0  0  0  0  0  0  0  0
   -0.2315   -3.2227   31.8012 C   0  0  0  0  0  0  0  0  0  0  0  0
   -0.6985   -4.1255   31.2127 O   0  0  0  0  0  0  0  0  0  0  0  0
   -0.2517   -1.7666   31.5006 N   0  0  0  0  0  0  0  0  0  0  0  0
   -0.7316   -1.0917   30.4276 C   0  0  0  0  0  0  0  0  0  0  0  0
   -0.7667    0.2926   30.2060 C   0  0  0  0  0  0  0  0  0  0  0  0
   -1.2912    0.5937   29.0176 N   0  0  0  0  0  0  0  0  0  0  0  0
   -1.5240   -0.6111   28.4654 N   0  0  0  0  0  0  0  0  0  0  0  0
   -1.2334   -1.6536   29.2860 C   0  0  0  0  0  0  0  0  0  0  0  0
    5.3848    0.8319   34.9016 H   0  0  0  0  0  0  0  0  0  0  0  0
    4.0299    1.2648   33.7034 H   0  0  0  0  0  0  0  0  0  0  0  0
    3.7276    0.9851   35.3690 H   0  0  0  0  0  0  0  0  0  0  0  0
    5.8991   -0.1799   33.3423 H   0  0  0  0  0  0  0  0  0  0  0  0
    4.3800   -0.2583   32.3692 H   0  0  0  0  0  0  0  0  0  0  0  0
    6.7564   -2.3889   34.3907 H   0  0  0  0  0  0  0  0  0  0  0  0
    7.5756   -4.5768   33.5846 H   0  0  0  0  0  0  0  0  0  0  0  0
    6.7288   -5.5133   31.4526 H   0  0  0  0  0  0  0  0  0  0  0  0
    5.0293   -4.2725   30.1369 H   0  0  0  0  0  0  0  0  0  0  0  0
    4.1877   -2.0975   30.9273 H   0  0  0  0  0  0  0  0  0  0  0  0
    4.0641   -2.8866   34.8024 H   0  0  0  0  0  0  0  0  0  0  0  0
    4.0365   -5.0614   35.3861 H   0  0  0  0  0  0  0  0  0  0  0  0
    3.0218   -7.2772   35.3623 H   0  0  0  0  0  0  0  0  0  0  0  0
   -1.3901   -5.3986   32.9860 H   0  0  0  0  0  0  0  0  0  0  0  0
    0.9220   -2.2662   33.1988 H   0  0  0  0  0  0  0  0  0  0  0  0
    0.1768   -1.2631   32.2612 H   0  0  0  0  0  0  0  0  0  0  0  0
   -0.4359    1.0941   30.8517 H   0  0  0  0  0  0  0  0  0  0  0  0
   -1.9056   -0.6587   27.5298 H   0  0  0  0  0  0  0  0  0  0  0  0
   -1.3900   -2.6778   28.9737 H   0  0  0  0  0  0  0  0  0  0  0  0
  1  2  1  0
  2  3  1  0
  3  4  1  0
  4  5  2  0
  5  6  1  0
  6  7  2  0
  7  8  1  0
  8  9  2  0
  2 10  1  0
 10 11  2  0
 10 12  1  0
 12 13  1  0
 13 14  1  0
 14 15  2  0
 15 16  1  0
 16 17  2  0
 17 18  1  0
 18 19  2  0
 19 20  1  0
 20 21  1  0
 21 22  1  0
 22 23  1  0
 23 24  2  0
 23 25  1  0
 25 26  1  0
 26 27  1  0
 27 28  2  0
 28 29  1  0
 29 30  1  0
  9  4  1  0
 21 13  2  0
 30 26  2  0
 20 16  1  0
  1 31  1  0
  1 32  1  0
  1 33  1  0
  3 34  1  0
  3 35  1  0
  5 36  1  0
  6 37  1  0
  7 38  1  0
  8 39  1  0
  9 40  1  0
 12 41  1  0
 14 42  1  0
 15 43  1  0
 19 44  1  0
 22 45  1  0
 25 46  1  0
 27 47  1  0
 29 48  1  0
 30 49  1  0
M  END
>  <Energy>  (994) 
31.949162235698783

>  <compound_id>  (994) 
4469

>  <target_id>  (994) 
1

>  <reference_id>  (994) 
186

>  <inspiration_ids>  (994) 
[157, 186]

>  <energy_score>  (994) 
-19.662414912400607

>  <distance_score>  (994) 
2.90641775364612

>  <path>  (994) 
/opt/xchem-fragalysis-2/maxwin/BulkDock/SCRATCH/505735/C4469-P186/C4469-P186.minimised.mol

>  <scratch_subdir>  (994) 
/opt/xchem-fragalysis-2/maxwin/BulkDock/SCRATCH/505735/C4469-P186

>  <fragmenstein_runtime>  (994) 
11.644311428070068

>  <fragmenstein_outcome>  (994) 
too moved

>  <fragmenstein_mode>  (994) 
expansion

>  <fragmenstein_error>  (994) 


$$$$
C4470-P157
     RDKit          3D

 52 55  0  0  0  0  0  0  0  0999 V2000
    4.1171   -1.5378   35.3771 C   0  0  0  0  0  0  0  0  0  0  0  0
    2.8573   -2.0969   34.8285 N   0  0  0  0  0  0  0  0  0  0  0  0
    3.8442   -2.8090   33.8820 C   0  0  0  0  0  0  0  0  0  0  0  0
    3.2468   -3.0975   32.5031 C   0  0  0  0  0  0  0  0  0  0  0  0
    2.9677   -4.4086   32.0990 C   0  0  0  0  0  0  0  0  0  0  0  0
    2.5515   -4.6734   30.7908 C   0  0  0  0  0  0  0  0  0  0  0  0
    2.3979   -3.6356   29.8771 C   0  0  0  0  0  0  0  0  0  0  0  0
    2.6458   -2.3254   30.2766 C   0  0  0  0  0  0  0  0  0  0  0  0
    3.0635   -2.0558   31.5822 C   0  0  0  0  0  0  0  0  0  0  0  0
    1.9168   -3.0685   35.4024 C   0  0  0  0  0  0  0  0  0  0  0  0
    1.9868   -3.6967   36.3916 O   0  0  0  0  0  0  0  0  0  0  0  0
    0.8429   -2.9493   34.4417 N   0  0  0  0  0  0  0  0  0  0  0  0
   -0.4876   -3.4815   34.4510 C   0  0  0  0  0  0  0  0  0  0  0  0
   -0.4968   -4.7372   33.6254 C   0  0  0  0  0  0  0  0  0  0  0  0
   -0.4625   -5.9568   34.4614 C   0  0  0  0  0  0  0  0  0  0  0  0
   -0.6294   -7.1927   33.9650 C   0  0  0  0  0  0  0  0  0  0  0  0
   -0.7438   -7.3524   32.5716 C   0  0  0  0  0  0  0  0  0  0  0  0
   -0.9209   -8.4037   31.8011 N   0  0  0  0  0  0  0  0  0  0  0  0
   -0.8176   -7.9964   30.4983 N   0  0  0  0  0  0  0  0  0  0  0  0
   -0.5904   -6.7067   30.5171 C   0  0  0  0  0  0  0  0  0  0  0  0
   -0.6489   -6.2134   31.7946 N   0  0  0  0  0  0  0  0  0  0  0  0
   -0.6099   -4.8786   32.2772 C   0  0  0  0  0  0  0  0  0  0  0  0
   -0.7353   -3.8819   31.3134 N   0  0  0  0  0  0  0  0  0  0  0  0
   -0.5335   -2.3903   31.4060 C   0  0  0  0  0  0  0  0  0  0  0  0
   -0.1763   -1.7290   32.3084 O   0  0  0  0  0  0  0  0  0  0  0  0
   -0.9116   -1.9982   30.0136 N   0  0  0  0  0  0  0  0  0  0  0  0
   -0.8606   -0.7927   29.3874 C   0  0  0  0  0  0  0  0  0  0  0  0
   -0.3189    0.4216   29.8441 C   0  0  0  0  0  0  0  0  0  0  0  0
   -0.4358    1.3948   28.9379 N   0  0  0  0  0  0  0  0  0  0  0  0
   -1.1054    0.8087   27.9278 N   0  0  0  0  0  0  0  0  0  0  0  0
   -1.3417   -0.5205   28.1355 C   0  0  0  0  0  0  0  0  0  0  0  0
    3.7823   -0.9859   36.2676 H   0  0  0  0  0  0  0  0  0  0  0  0
    4.8180   -2.2739   35.8017 H   0  0  0  0  0  0  0  0  0  0  0  0
    4.5660   -0.7596   34.7427 H   0  0  0  0  0  0  0  0  0  0  0  0
    4.7838   -2.2985   33.5950 H   0  0  0  0  0  0  0  0  0  0  0  0
    4.1185   -3.7740   34.3402 H   0  0  0  0  0  0  0  0  0  0  0  0
    3.0847   -5.2301   32.8017 H   0  0  0  0  0  0  0  0  0  0  0  0
    2.3492   -5.6929   30.4825 H   0  0  0  0  0  0  0  0  0  0  0  0
    2.0812   -3.8375   28.8580 H   0  0  0  0  0  0  0  0  0  0  0  0
    2.5139   -1.5054   29.5735 H   0  0  0  0  0  0  0  0  0  0  0  0
    3.2589   -1.0259   31.8753 H   0  0  0  0  0  0  0  0  0  0  0  0
    1.0940   -2.2515   33.7471 H   0  0  0  0  0  0  0  0  0  0  0  0
   -1.2008   -2.7394   34.0866 H   0  0  0  0  0  0  0  0  0  0  0  0
   -0.7690   -3.6703   35.4936 H   0  0  0  0  0  0  0  0  0  0  0  0
   -0.3400   -5.8354   35.5373 H   0  0  0  0  0  0  0  0  0  0  0  0
   -0.6570   -8.0669   34.6087 H   0  0  0  0  0  0  0  0  0  0  0  0
   -0.4034   -6.0882   29.6561 H   0  0  0  0  0  0  0  0  0  0  0  0
   -0.9679   -4.1272   30.3712 H   0  0  0  0  0  0  0  0  0  0  0  0
   -1.2490   -2.8030   29.5220 H   0  0  0  0  0  0  0  0  0  0  0  0
    0.1658    0.6336   30.7885 H   0  0  0  0  0  0  0  0  0  0  0  0
   -1.3699    1.3758   27.1282 H   0  0  0  0  0  0  0  0  0  0  0  0
   -1.8489   -1.1187   27.3915 H   0  0  0  0  0  0  0  0  0  0  0  0
  1  2  1  0
  2  3  1  0
  3  4  1  0
  4  5  2  0
  5  6  1  0
  6  7  2  0
  7  8  1  0
  8  9  2  0
  2 10  1  0
 10 11  2  0
 10 12  1  0
 12 13  1  0
 13 14  1  0
 14 15  1  0
 15 16  2  0
 16 17  1  0
 17 18  2  0
 18 19  1  0
 19 20  2  0
 20 21  1  0
 21 22  1  0
 22 23  1  0
 23 24  1  0
 24 25  2  0
 24 26  1  0
 26 27  1  0
 27 28  1  0
 28 29  2  0
 29 30  1  0
 30 31  1  0
  9  4  1  0
 22 14  2  0
 31 27  2  0
 21 17  1  0
  1 32  1  0
  1 33  1  0
  1 34  1  0
  3 35  1  0
  3 36  1  0
  5 37  1  0
  6 38  1  0
  7 39  1  0
  8 40  1  0
  9 41  1  0
 12 42  1  0
 13 43  1  0
 13 44  1  0
 15 45  1  0
 16 46  1  0
 20 47  1  0
 23 48  1  0
 26 49  1  0
 28 50  1  0
 30 51  1  0
 31 52  1  0
M  END
>  <Energy>  (995) 
26.138099776786724

>  <compound_id>  (995) 
4470

>  <target_id>  (995) 
1

>  <reference_id>  (995) 
157

>  <inspiration_ids>  (995) 
[157, 187]

>  <energy_score>  (995) 
32.8335957475669

>  <distance_score>  (995) 
2.4533476362085467

>  <path>  (995) 
/opt/xchem-fragalysis-2/maxwin/BulkDock/SCRATCH/505735/C4470-P157/C4470-P157.minimised.mol

>  <scratch_subdir>  (995) 
/opt/xchem-fragalysis-2/maxwin/BulkDock/SCRATCH/505735/C4470-P157

>  <fragmenstein_runtime>  (995) 
10.11043095588684

>  <fragmenstein_outcome>  (995) 
too moved

>  <fragmenstein_mode>  (995) 
expansion

>  <fragmenstein_error>  (995) 


$$$$
C4470-P187
     RDKit          3D

 52 55  0  0  0  0  0  0  0  0999 V2000
    4.2355   -1.4376   35.3021 C   0  0  0  0  0  0  0  0  0  0  0  0
    2.9679   -2.0150   34.7919 N   0  0  0  0  0  0  0  0  0  0  0  0
    3.9380   -2.7299   33.8295 C   0  0  0  0  0  0  0  0  0  0  0  0
    3.3073   -3.0440   32.4707 C   0  0  0  0  0  0  0  0  0  0  0  0
    3.0246   -4.3623   32.0940 C   0  0  0  0  0  0  0  0  0  0  0  0
    2.5673   -4.6475   30.8038 C   0  0  0  0  0  0  0  0  0  0  0  0
    2.3773   -3.6242   29.8806 C   0  0  0  0  0  0  0  0  0  0  0  0
    2.6316   -2.3074   30.2527 C   0  0  0  0  0  0  0  0  0  0  0  0
    3.0900   -2.0171   31.5403 C   0  0  0  0  0  0  0  0  0  0  0  0
    2.0511   -2.9879   35.4006 C   0  0  0  0  0  0  0  0  0  0  0  0
    2.1514   -3.6032   36.3953 O   0  0  0  0  0  0  0  0  0  0  0  0
    0.9529   -2.8905   34.4656 N   0  0  0  0  0  0  0  0  0  0  0  0
   -0.3721   -3.4349   34.5141 C   0  0  0  0  0  0  0  0  0  0  0  0
   -0.3814   -4.6984   33.7016 C   0  0  0  0  0  0  0  0  0  0  0  0
   -0.2819   -5.9135   34.5389 C   0  0  0  0  0  0  0  0  0  0  0  0
   -0.4448   -7.1545   34.0523 C   0  0  0  0  0  0  0  0  0  0  0  0
   -0.6082   -7.3210   32.6638 C   0  0  0  0  0  0  0  0  0  0  0  0
   -0.7856   -8.3749   31.8967 N   0  0  0  0  0  0  0  0  0  0  0  0
   -0.7184   -7.9664   30.5907 N   0  0  0  0  0  0  0  0  0  0  0  0
   -0.5091   -6.6740   30.6077 C   0  0  0  0  0  0  0  0  0  0  0  0
   -0.5700   -6.1821   31.8843 N   0  0  0  0  0  0  0  0  0  0  0  0
   -0.5553   -4.8490   32.3618 C   0  0  0  0  0  0  0  0  0  0  0  0
   -0.7723   -3.8583   31.4109 N   0  0  0  0  0  0  0  0  0  0  0  0
   -0.5075   -2.3735   31.4558 C   0  0  0  0  0  0  0  0  0  0  0  0
   -0.0837   -1.7059   32.3240 O   0  0  0  0  0  0  0  0  0  0  0  0
   -0.9710   -1.9938   30.0858 N   0  0  0  0  0  0  0  0  0  0  0  0
   -0.9458   -0.7969   29.4415 C   0  0  0  0  0  0  0  0  0  0  0  0
   -0.4209    0.4331   29.8739 C   0  0  0  0  0  0  0  0  0  0  0  0
   -0.5544    1.3869   28.9496 N   0  0  0  0  0  0  0  0  0  0  0  0
   -1.2264    0.7747   27.9568 N   0  0  0  0  0  0  0  0  0  0  0  0
   -1.4384   -0.5547   28.1881 C   0  0  0  0  0  0  0  0  0  0  0  0
    4.9537   -2.1620   35.7178 H   0  0  0  0  0  0  0  0  0  0  0  0
    4.6611   -0.6632   34.6475 H   0  0  0  0  0  0  0  0  0  0  0  0
    3.9177   -0.8780   36.1940 H   0  0  0  0  0  0  0  0  0  0  0  0
    4.8635   -2.2125   33.5110 H   0  0  0  0  0  0  0  0  0  0  0  0
    4.2348   -3.6856   34.2930 H   0  0  0  0  0  0  0  0  0  0  0  0
    3.1687   -5.1737   32.8038 H   0  0  0  0  0  0  0  0  0  0  0  0
    2.3622   -5.6731   30.5186 H   0  0  0  0  0  0  0  0  0  0  0  0
    2.0286   -3.8419   28.8755 H   0  0  0  0  0  0  0  0  0  0  0  0
    2.4718   -1.4973   29.5437 H   0  0  0  0  0  0  0  0  0  0  0  0
    3.2867   -0.9817   31.8130 H   0  0  0  0  0  0  0  0  0  0  0  0
    1.1803   -2.1988   33.7564 H   0  0  0  0  0  0  0  0  0  0  0  0
   -1.0974   -2.7024   34.1536 H   0  0  0  0  0  0  0  0  0  0  0  0
   -0.6292   -3.6169   35.5640 H   0  0  0  0  0  0  0  0  0  0  0  0
   -0.1188   -5.7836   35.6083 H   0  0  0  0  0  0  0  0  0  0  0  0
   -0.4272   -8.0270   34.6987 H   0  0  0  0  0  0  0  0  0  0  0  0
   -0.3273   -6.0514   29.7484 H   0  0  0  0  0  0  0  0  0  0  0  0
   -1.0575   -4.1164   30.4870 H   0  0  0  0  0  0  0  0  0  0  0  0
   -1.1956   -2.8216   29.5701 H   0  0  0  0  0  0  0  0  0  0  0  0
    0.0671    0.6692   30.8109 H   0  0  0  0  0  0  0  0  0  0  0  0
   -1.5090    1.3245   27.1514 H   0  0  0  0  0  0  0  0  0  0  0  0
   -1.9431   -1.1729   27.4589 H   0  0  0  0  0  0  0  0  0  0  0  0
  1  2  1  0
  2  3  1  0
  3  4  1  0
  4  5  2  0
  5  6  1  0
  6  7  2  0
  7  8  1  0
  8  9  2  0
  2 10  1  0
 10 11  2  0
 10 12  1  0
 12 13  1  0
 13 14  1  0
 14 15  1  0
 15 16  2  0
 16 17  1  0
 17 18  2  0
 18 19  1  0
 19 20  2  0
 20 21  1  0
 21 22  1  0
 22 23  1  0
 23 24  1  0
 24 25  2  0
 24 26  1  0
 26 27  1  0
 27 28  1  0
 28 29  2  0
 29 30  1  0
 30 31  1  0
  9  4  1  0
 22 14  2  0
 31 27  2  0
 21 17  1  0
  1 32  1  0
  1 33  1  0
  1 34  1  0
  3 35  1  0
  3 36  1  0
  5 37  1  0
  6 38  1  0
  7 39  1  0
  8 40  1  0
  9 41  1  0
 12 42  1  0
 13 43  1  0
 13 44  1  0
 15 45  1  0
 16 46  1  0
 20 47  1  0
 23 48  1  0
 26 49  1  0
 28 50  1  0
 30 51  1  0
 31 52  1  0
M  END
>  <Energy>  (996) 
26.896319794540226

>  <compound_id>  (996) 
4470

>  <target_id>  (996) 
1

>  <reference_id>  (996) 
187

>  <inspiration_ids>  (996) 
[157, 187]

>  <energy_score>  (996) 
33.591815765319126

>  <distance_score>  (996) 
2.44174554687439

>  <path>  (996) 
/opt/xchem-fragalysis-2/maxwin/BulkDock/SCRATCH/505735/C4470-P187/C4470-P187.minimised.mol

>  <scratch_subdir>  (996) 
/opt/xchem-fragalysis-2/maxwin/BulkDock/SCRATCH/505735/C4470-P187

>  <fragmenstein_runtime>  (996) 
15.500243186950684

>  <fragmenstein_outcome>  (996) 
too moved

>  <fragmenstein_mode>  (996) 
expansion

>  <fragmenstein_error>  (996) 


$$$$
C4471-P157
     RDKit          3D

 54 57  0  0  0  0  0  0  0  0999 V2000
    2.1172   -0.0199   34.4575 C   0  0  0  0  0  0  0  0  0  0  0  0
    2.4638   -1.3697   34.7442 O   0  0  0  0  0  0  0  0  0  0  0  0
    1.8505   -2.3157   33.8588 C   0  0  0  0  0  0  0  0  0  0  0  0
    2.0527   -3.7052   34.4636 C   0  0  0  0  0  0  0  0  0  0  0  0
    2.0479   -4.8726   33.4829 C   0  0  0  0  0  0  0  0  0  0  0  0
    1.2917   -4.6305   32.1602 C   0  0  0  0  0  0  0  0  0  0  0  0
    1.6185   -5.8248   31.1931 C   0  0  0  0  0  0  0  0  0  0  0  0
    0.4543   -6.3384   30.3448 C   0  0  0  0  0  0  0  0  0  0  0  0
   -0.5988   -6.7294   31.2868 C   0  0  0  0  0  0  0  0  0  0  0  0
   -1.1917   -7.8849   31.4398 N   0  0  0  0  0  0  0  0  0  0  0  0
   -1.5851   -7.9336   32.7554 N   0  0  0  0  0  0  0  0  0  0  0  0
   -1.2705   -6.7929   33.3330 C   0  0  0  0  0  0  0  0  0  0  0  0
   -1.2954   -6.5059   34.6442 N   0  0  0  0  0  0  0  0  0  0  0  0
   -0.8367   -5.9262   32.3728 N   0  0  0  0  0  0  0  0  0  0  0  0
   -0.2849   -4.5734   32.4290 C   0  0  0  0  0  0  0  0  0  0  0  0
   -0.8079   -3.6817   31.4001 N   0  0  0  0  0  0  0  0  0  0  0  0
   -0.9308   -2.1388   31.3791 C   0  0  0  0  0  0  0  0  0  0  0  0
   -0.7105   -1.3734   32.1908 O   0  0  0  0  0  0  0  0  0  0  0  0
   -1.3427   -1.9372   29.8964 N   0  0  0  0  0  0  0  0  0  0  0  0
   -1.4578   -0.8020   29.1644 C   0  0  0  0  0  0  0  0  0  0  0  0
   -1.1021    0.5052   29.5249 C   0  0  0  0  0  0  0  0  0  0  0  0
   -1.2187    1.3573   28.5043 N   0  0  0  0  0  0  0  0  0  0  0  0
   -1.6722    0.5868   27.4999 N   0  0  0  0  0  0  0  0  0  0  0  0
   -1.8048   -0.7264   27.8467 C   0  0  0  0  0  0  0  0  0  0  0  0
    1.9408   -3.3782   31.4833 C   0  0  0  0  0  0  0  0  0  0  0  0
    2.2942   -2.1847   32.3852 C   0  0  0  0  0  0  0  0  0  0  0  0
    3.6655   -1.8290   32.1704 O   0  0  0  0  0  0  0  0  0  0  0  0
    4.6317   -2.7283   32.6683 C   0  0  0  0  0  0  0  0  0  0  0  0
    1.0306    0.1068   34.4378 H   0  0  0  0  0  0  0  0  0  0  0  0
    2.5549    0.3051   33.5101 H   0  0  0  0  0  0  0  0  0  0  0  0
    2.5246    0.6106   35.2526 H   0  0  0  0  0  0  0  0  0  0  0  0
    0.7705   -2.1408   33.9048 H   0  0  0  0  0  0  0  0  0  0  0  0
    1.2578   -3.8655   35.2054 H   0  0  0  0  0  0  0  0  0  0  0  0
    2.9751   -3.7435   35.0570 H   0  0  0  0  0  0  0  0  0  0  0  0
    3.0921   -5.1245   33.2564 H   0  0  0  0  0  0  0  0  0  0  0  0
    1.6537   -5.7595   33.9957 H   0  0  0  0  0  0  0  0  0  0  0  0
    1.9346   -6.6491   31.8367 H   0  0  0  0  0  0  0  0  0  0  0  0
    2.4653   -5.6143   30.5316 H   0  0  0  0  0  0  0  0  0  0  0  0
    0.1150   -5.5820   29.6357 H   0  0  0  0  0  0  0  0  0  0  0  0
    0.7772   -7.2205   29.7923 H   0  0  0  0  0  0  0  0  0  0  0  0
   -1.7139   -5.6243   34.9397 H   0  0  0  0  0  0  0  0  0  0  0  0
   -1.6182   -7.2838   35.2220 H   0  0  0  0  0  0  0  0  0  0  0  0
   -0.5194   -4.1333   33.4017 H   0  0  0  0  0  0  0  0  0  0  0  0
   -1.0051   -4.0483   30.4874 H   0  0  0  0  0  0  0  0  0  0  0  0
   -1.3805   -2.8266   29.4320 H   0  0  0  0  0  0  0  0  0  0  0  0
   -0.7191    0.8616   30.4715 H   0  0  0  0  0  0  0  0  0  0  0  0
   -1.8768    1.0224   26.6070 H   0  0  0  0  0  0  0  0  0  0  0  0
   -2.1425   -1.4607   27.1327 H   0  0  0  0  0  0  0  0  0  0  0  0
    1.3537   -3.0332   30.6259 H   0  0  0  0  0  0  0  0  0  0  0  0
    2.8651   -3.6892   30.9809 H   0  0  0  0  0  0  0  0  0  0  0  0
    1.7671   -1.3149   31.9784 H   0  0  0  0  0  0  0  0  0  0  0  0
    4.6023   -2.7812   33.7582 H   0  0  0  0  0  0  0  0  0  0  0  0
    5.6173   -2.3392   32.3942 H   0  0  0  0  0  0  0  0  0  0  0  0
    4.5491   -3.7253   32.2322 H   0  0  0  0  0  0  0  0  0  0  0  0
  1  2  1  0
  2  3  1  0
  3  4  1  0
  4  5  1  0
  5  6  1  0
  6  7  1  0
  7  8  1  0
  8  9  1  0
  9 10  2  0
 10 11  1  0
 11 12  2  0
 12 13  1  0
 12 14  1  0
 14 15  1  0
 15 16  1  0
 16 17  1  0
 17 18  2  0
 17 19  1  0
 19 20  1  0
 20 21  1  0
 21 22  2  0
 22 23  1  0
 23 24  1  0
  6 25  1  0
 25 26  1  0
 26 27  1  0
 27 28  1  0
 26  3  1  0
 15  6  1  0
 24 20  2  0
 14  9  1  0
  1 29  1  0
  1 30  1  0
  1 31  1  0
  3 32  1  0
  4 33  1  0
  4 34  1  0
  5 35  1  0
  5 36  1  0
  7 37  1  0
  7 38  1  0
  8 39  1  0
  8 40  1  0
 13 41  1  0
 13 42  1  0
 15 43  1  0
 16 44  1  0
 19 45  1  0
 21 46  1  0
 23 47  1  0
 24 48  1  0
 25 49  1  0
 25 50  1  0
 26 51  1  0
 28 52  1  0
 28 53  1  0
 28 54  1  0
M  END
>  <Energy>  (997) 
32.066447194427575

>  <compound_id>  (997) 
4471

>  <target_id>  (997) 
1

>  <reference_id>  (997) 
157

>  <inspiration_ids>  (997) 
[157, 188]

>  <energy_score>  (997) 
-34.385017524273934

>  <distance_score>  (997) 
1.2544840064406289

>  <path>  (997) 
/opt/xchem-fragalysis-2/maxwin/BulkDock/SCRATCH/505735/C4471-P157/C4471-P157.minimised.mol

>  <scratch_subdir>  (997) 
/opt/xchem-fragalysis-2/maxwin/BulkDock/SCRATCH/505735/C4471-P157

>  <fragmenstein_runtime>  (997) 
7.559119939804077

>  <fragmenstein_outcome>  (997) 
too moved

>  <fragmenstein_mode>  (997) 
expansion

>  <fragmenstein_error>  (997) 


$$$$
C4471-P188
     RDKit          3D

 54 57  0  0  0  0  0  0  0  0999 V2000
    1.9925   -0.0177   34.6250 C   0  0  0  0  0  0  0  0  0  0  0  0
    2.3246   -1.3740   34.8974 O   0  0  0  0  0  0  0  0  0  0  0  0
    1.7219   -2.3025   33.9863 C   0  0  0  0  0  0  0  0  0  0  0  0
    1.8997   -3.6999   34.5791 C   0  0  0  0  0  0  0  0  0  0  0  0
    1.9372   -4.8553   33.5880 C   0  0  0  0  0  0  0  0  0  0  0  0
    1.2216   -4.6100   32.2465 C   0  0  0  0  0  0  0  0  0  0  0  0
    1.6323   -5.7658   31.2730 C   0  0  0  0  0  0  0  0  0  0  0  0
    0.5516   -6.2205   30.2925 C   0  0  0  0  0  0  0  0  0  0  0  0
   -0.5581   -6.6984   31.1264 C   0  0  0  0  0  0  0  0  0  0  0  0
   -1.1661   -7.8554   31.1225 N   0  0  0  0  0  0  0  0  0  0  0  0
   -1.6519   -8.0262   32.3933 N   0  0  0  0  0  0  0  0  0  0  0  0
   -1.3396   -6.9692   33.1174 C   0  0  0  0  0  0  0  0  0  0  0  0
   -1.4396   -6.8708   34.4542 N   0  0  0  0  0  0  0  0  0  0  0  0
   -0.8630   -6.0051   32.2747 N   0  0  0  0  0  0  0  0  0  0  0  0
   -0.3785   -4.6338   32.4457 C   0  0  0  0  0  0  0  0  0  0  0  0
   -0.8586   -3.7104   31.4220 N   0  0  0  0  0  0  0  0  0  0  0  0
   -1.0043   -2.1713   31.4509 C   0  0  0  0  0  0  0  0  0  0  0  0
   -0.8412   -1.4340   32.3009 O   0  0  0  0  0  0  0  0  0  0  0  0
   -1.3364   -1.9204   29.9574 N   0  0  0  0  0  0  0  0  0  0  0  0
   -1.4285   -0.7615   29.2625 C   0  0  0  0  0  0  0  0  0  0  0  0
   -1.0754    0.5297   29.6803 C   0  0  0  0  0  0  0  0  0  0  0  0
   -1.1452    1.4158   28.6858 N   0  0  0  0  0  0  0  0  0  0  0  0
   -1.5903    0.6892   27.6452 N   0  0  0  0  0  0  0  0  0  0  0  0
   -1.7168   -0.6396   27.9338 C   0  0  0  0  0  0  0  0  0  0  0  0
    1.8544   -3.3281   31.6006 C   0  0  0  0  0  0  0  0  0  0  0  0
    2.1952   -2.1516   32.5248 C   0  0  0  0  0  0  0  0  0  0  0  0
    3.5726   -1.7989   32.3403 O   0  0  0  0  0  0  0  0  0  0  0  0
    4.5278   -2.7199   32.8204 C   0  0  0  0  0  0  0  0  0  0  0  0
    2.3874    0.5976   35.4381 H   0  0  0  0  0  0  0  0  0  0  0  0
    0.9072    0.1164   34.5850 H   0  0  0  0  0  0  0  0  0  0  0  0
    2.4515    0.3190   33.6919 H   0  0  0  0  0  0  0  0  0  0  0  0
    0.6425   -2.1217   34.0138 H   0  0  0  0  0  0  0  0  0  0  0  0
    1.0744   -3.8701   35.2848 H   0  0  0  0  0  0  0  0  0  0  0  0
    2.7968   -3.7451   35.2100 H   0  0  0  0  0  0  0  0  0  0  0  0
    2.9911   -5.0933   33.3930 H   0  0  0  0  0  0  0  0  0  0  0  0
    1.5363   -5.7519   34.0786 H   0  0  0  0  0  0  0  0  0  0  0  0
    1.8768   -6.6154   31.9156 H   0  0  0  0  0  0  0  0  0  0  0  0
    2.5388   -5.5357   30.7060 H   0  0  0  0  0  0  0  0  0  0  0  0
    0.2601   -5.4112   29.6216 H   0  0  0  0  0  0  0  0  0  0  0  0
    0.9343   -7.0431   29.6863 H   0  0  0  0  0  0  0  0  0  0  0  0
   -0.8728   -6.2173   34.9812 H   0  0  0  0  0  0  0  0  0  0  0  0
   -1.4802   -7.7893   34.9130 H   0  0  0  0  0  0  0  0  0  0  0  0
   -0.6796   -4.2575   33.4269 H   0  0  0  0  0  0  0  0  0  0  0  0
   -0.9997   -4.0454   30.4860 H   0  0  0  0  0  0  0  0  0  0  0  0
   -1.4962   -2.7977   29.4943 H   0  0  0  0  0  0  0  0  0  0  0  0
   -0.7269    0.8520   30.6519 H   0  0  0  0  0  0  0  0  0  0  0  0
   -1.7871    1.1648   26.7709 H   0  0  0  0  0  0  0  0  0  0  0  0
   -2.0241   -1.3486   27.1821 H   0  0  0  0  0  0  0  0  0  0  0  0
    1.2739   -2.9717   30.7445 H   0  0  0  0  0  0  0  0  0  0  0  0
    2.7841   -3.6092   31.0913 H   0  0  0  0  0  0  0  0  0  0  0  0
    1.6775   -1.2738   32.1219 H   0  0  0  0  0  0  0  0  0  0  0  0
    4.4711   -2.8223   33.9058 H   0  0  0  0  0  0  0  0  0  0  0  0
    5.5193   -2.3191   32.5878 H   0  0  0  0  0  0  0  0  0  0  0  0
    4.4564   -3.6966   32.3385 H   0  0  0  0  0  0  0  0  0  0  0  0
  1  2  1  0
  2  3  1  0
  3  4  1  0
  4  5  1  0
  5  6  1  0
  6  7  1  0
  7  8  1  0
  8  9  1  0
  9 10  2  0
 10 11  1  0
 11 12  2  0
 12 13  1  0
 12 14  1  0
 14 15  1  0
 15 16  1  0
 16 17  1  0
 17 18  2  0
 17 19  1  0
 19 20  1  0
 20 21  1  0
 21 22  2  0
 22 23  1  0
 23 24  1  0
  6 25  1  0
 25 26  1  0
 26 27  1  0
 27 28  1  0
 26  3  1  0
 15  6  1  0
 24 20  2  0
 14  9  1  0
  1 29  1  0
  1 30  1  0
  1 31  1  0
  3 32  1  0
  4 33  1  0
  4 34  1  0
  5 35  1  0
  5 36  1  0
  7 37  1  0
  7 38  1  0
  8 39  1  0
  8 40  1  0
 13 41  1  0
 13 42  1  0
 15 43  1  0
 16 44  1  0
 19 45  1  0
 21 46  1  0
 23 47  1  0
 24 48  1  0
 25 49  1  0
 25 50  1  0
 26 51  1  0
 28 52  1  0
 28 53  1  0
 28 54  1  0
M  END
>  <Energy>  (998) 
36.737163910581494

>  <compound_id>  (998) 
4471

>  <target_id>  (998) 
1

>  <reference_id>  (998) 
188

>  <inspiration_ids>  (998) 
[157, 188]

>  <energy_score>  (998) 
-29.71430080812121

>  <distance_score>  (998) 
1.2334120438677685

>  <path>  (998) 
/opt/xchem-fragalysis-2/maxwin/BulkDock/SCRATCH/505735/C4471-P188/C4471-P188.minimised.mol

>  <scratch_subdir>  (998) 
/opt/xchem-fragalysis-2/maxwin/BulkDock/SCRATCH/505735/C4471-P188

>  <fragmenstein_runtime>  (998) 
6.68950080871582

>  <fragmenstein_outcome>  (998) 
too moved

>  <fragmenstein_mode>  (998) 
expansion

>  <fragmenstein_error>  (998) 


$$$$
C4471-P157
     RDKit          3D

 54 57  0  0  0  0  0  0  0  0999 V2000
    4.2892   -0.0644   32.0905 C   0  0  0  0  0  0  0  0  0  0  0  0
    4.1264   -1.4752   31.9841 O   0  0  0  0  0  0  0  0  0  0  0  0
    3.0354   -1.9735   32.7817 C   0  0  0  0  0  0  0  0  0  0  0  0
    1.7544   -1.8710   31.9774 C   0  0  0  0  0  0  0  0  0  0  0  0
    1.6081   -3.1338   31.1254 C   0  0  0  0  0  0  0  0  0  0  0  0
    1.2049   -4.3951   32.0169 C   0  0  0  0  0  0  0  0  0  0  0  0
    1.7353   -5.6225   31.2092 C   0  0  0  0  0  0  0  0  0  0  0  0
    0.6926   -6.1872   30.2415 C   0  0  0  0  0  0  0  0  0  0  0  0
   -0.4112   -6.6900   31.0713 C   0  0  0  0  0  0  0  0  0  0  0  0
   -0.9812   -7.8671   31.0930 N   0  0  0  0  0  0  0  0  0  0  0  0
   -1.5221   -8.0015   32.3477 N   0  0  0  0  0  0  0  0  0  0  0  0
   -1.2773   -6.9027   33.0346 C   0  0  0  0  0  0  0  0  0  0  0  0
   -1.4408   -6.7416   34.3567 N   0  0  0  0  0  0  0  0  0  0  0  0
   -0.7916   -5.9613   32.1710 N   0  0  0  0  0  0  0  0  0  0  0  0
   -0.4054   -4.5599   32.2884 C   0  0  0  0  0  0  0  0  0  0  0  0
   -0.9176   -3.6880   31.2368 N   0  0  0  0  0  0  0  0  0  0  0  0
   -1.2419   -2.1735   31.2590 C   0  0  0  0  0  0  0  0  0  0  0  0
   -1.2234   -1.4298   32.1211 O   0  0  0  0  0  0  0  0  0  0  0  0
   -1.4974   -1.9466   29.7424 N   0  0  0  0  0  0  0  0  0  0  0  0
   -1.6737   -0.7961   29.0435 C   0  0  0  0  0  0  0  0  0  0  0  0
   -1.8650   -0.6054   27.6703 C   0  0  0  0  0  0  0  0  0  0  0  0
   -1.7542    0.6778   27.3156 N   0  0  0  0  0  0  0  0  0  0  0  0
   -1.5424    1.3088   28.4793 N   0  0  0  0  0  0  0  0  0  0  0  0
   -1.4408    0.4568   29.5410 C   0  0  0  0  0  0  0  0  0  0  0  0
    1.9975   -4.2511   33.3455 C   0  0  0  0  0  0  0  0  0  0  0  0
    3.3008   -3.4650   33.0849 C   0  0  0  0  0  0  0  0  0  0  0  0
    4.1485   -3.5966   34.2020 O   0  0  0  0  0  0  0  0  0  0  0  0
    5.4900   -3.3101   33.8525 C   0  0  0  0  0  0  0  0  0  0  0  0
    3.3896    0.4658   31.7674 H   0  0  0  0  0  0  0  0  0  0  0  0
    5.1184    0.2322   31.4426 H   0  0  0  0  0  0  0  0  0  0  0  0
    4.5385    0.2116   33.1196 H   0  0  0  0  0  0  0  0  0  0  0  0
    2.9721   -1.3970   33.7132 H   0  0  0  0  0  0  0  0  0  0  0  0
    1.7432   -0.9903   31.3283 H   0  0  0  0  0  0  0  0  0  0  0  0
    0.9359   -1.7787   32.6907 H   0  0  0  0  0  0  0  0  0  0  0  0
    2.5703   -3.3050   30.6206 H   0  0  0  0  0  0  0  0  0  0  0  0
    0.9600   -2.9722   30.2626 H   0  0  0  0  0  0  0  0  0  0  0  0
    2.0092   -6.4045   31.9267 H   0  0  0  0  0  0  0  0  0  0  0  0
    2.6490   -5.3864   30.6538 H   0  0  0  0  0  0  0  0  0  0  0  0
    1.1275   -7.0089   29.6782 H   0  0  0  0  0  0  0  0  0  0  0  0
    0.3589   -5.4244   29.5354 H   0  0  0  0  0  0  0  0  0  0  0  0
   -1.5062   -7.6213   34.8769 H   0  0  0  0  0  0  0  0  0  0  0  0
   -0.9649   -6.0155   34.8790 H   0  0  0  0  0  0  0  0  0  0  0  0
   -0.6983   -4.1628   33.2636 H   0  0  0  0  0  0  0  0  0  0  0  0
   -1.1130   -4.0619   30.3255 H   0  0  0  0  0  0  0  0  0  0  0  0
   -1.3611   -2.8085   29.2434 H   0  0  0  0  0  0  0  0  0  0  0  0
   -2.0825   -1.3412   26.9140 H   0  0  0  0  0  0  0  0  0  0  0  0
   -1.4760    2.3227   28.4648 H   0  0  0  0  0  0  0  0  0  0  0  0
   -1.1701    0.7964   30.5279 H   0  0  0  0  0  0  0  0  0  0  0  0
    1.4072   -3.7190   34.1026 H   0  0  0  0  0  0  0  0  0  0  0  0
    2.2177   -5.2303   33.7877 H   0  0  0  0  0  0  0  0  0  0  0  0
    3.8132   -3.9457   32.2404 H   0  0  0  0  0  0  0  0  0  0  0  0
    6.1251   -3.6507   34.6763 H   0  0  0  0  0  0  0  0  0  0  0  0
    5.8116   -3.8401   32.9501 H   0  0  0  0  0  0  0  0  0  0  0  0
    5.6528   -2.2345   33.7525 H   0  0  0  0  0  0  0  0  0  0  0  0
  1  2  1  0
  2  3  1  0
  3  4  1  0
  4  5  1  0
  5  6  1  0
  6  7  1  0
  7  8  1  0
  8  9  1  0
  9 10  2  0
 10 11  1  0
 11 12  2  0
 12 13  1  0
 12 14  1  0
 14 15  1  0
 15 16  1  0
 16 17  1  0
 17 18  2  0
 17 19  1  0
 19 20  1  0
 20 21  1  0
 21 22  2  0
 22 23  1  0
 23 24  1  0
  6 25  1  0
 25 26  1  0
 26 27  1  0
 27 28  1  0
 26  3  1  0
 15  6  1  0
 24 20  2  0
 14  9  1  0
  1 29  1  0
  1 30  1  0
  1 31  1  0
  3 32  1  0
  4 33  1  0
  4 34  1  0
  5 35  1  0
  5 36  1  0
  7 37  1  0
  7 38  1  0
  8 39  1  0
  8 40  1  0
 13 41  1  0
 13 42  1  0
 15 43  1  0
 16 44  1  0
 19 45  1  0
 21 46  1  0
 23 47  1  0
 24 48  1  0
 25 49  1  0
 25 50  1  0
 26 51  1  0
 28 52  1  0
 28 53  1  0
 28 54  1  0
M  END
>  <Energy>  (999) 
40.575600290397475

>  <compound_id>  (999) 
4471

>  <target_id>  (999) 
1

>  <reference_id>  (999) 
157

>  <inspiration_ids>  (999) 
[157, 189]

>  <energy_score>  (999) 
-25.875864428305675

>  <distance_score>  (999) 
1.5618589268762415

>  <path>  (999) 
/opt/xchem-fragalysis-2/maxwin/BulkDock/SCRATCH/505735/C4471-P157/C4471-P157.minimised.mol

>  <scratch_subdir>  (999) 
/opt/xchem-fragalysis-2/maxwin/BulkDock/SCRATCH/505735/C4471-P157

>  <fragmenstein_runtime>  (999) 
7.9588212966918945

>  <fragmenstein_outcome>  (999) 
too moved

>  <fragmenstein_mode>  (999) 
expansion

>  <fragmenstein_error>  (999) 


$$$$
C4471-P189
     RDKit          3D

 54 57  0  0  0  0  0  0  0  0999 V2000
    2.3250   -0.6697   35.7114 C   0  0  0  0  0  0  0  0  0  0  0  0
    2.3695   -0.6991   34.2929 O   0  0  0  0  0  0  0  0  0  0  0  0
    1.8262   -1.8955   33.7244 C   0  0  0  0  0  0  0  0  0  0  0  0
    1.5823   -1.6308   32.2406 C   0  0  0  0  0  0  0  0  0  0  0  0
    1.5949   -2.8936   31.3624 C   0  0  0  0  0  0  0  0  0  0  0  0
    1.2121   -4.2596   32.0494 C   0  0  0  0  0  0  0  0  0  0  0  0
    1.7647   -5.3883   31.0859 C   0  0  0  0  0  0  0  0  0  0  0  0
    0.7135   -6.0462   30.1836 C   0  0  0  0  0  0  0  0  0  0  0  0
   -0.3132   -6.6145   31.0759 C   0  0  0  0  0  0  0  0  0  0  0  0
   -0.7881   -7.8319   31.1694 N   0  0  0  0  0  0  0  0  0  0  0  0
   -1.2943   -7.9520   32.4455 N   0  0  0  0  0  0  0  0  0  0  0  0
   -1.1436   -6.7992   33.0640 C   0  0  0  0  0  0  0  0  0  0  0  0
   -1.3122   -6.5412   34.3724 N   0  0  0  0  0  0  0  0  0  0  0  0
   -0.7196   -5.8747   32.1562 N   0  0  0  0  0  0  0  0  0  0  0  0
   -0.3809   -4.4607   32.2497 C   0  0  0  0  0  0  0  0  0  0  0  0
   -0.9883   -3.6417   31.2032 N   0  0  0  0  0  0  0  0  0  0  0  0
   -1.4979   -2.1798   31.2429 C   0  0  0  0  0  0  0  0  0  0  0  0
   -1.5794   -1.4522   32.1159 O   0  0  0  0  0  0  0  0  0  0  0  0
   -1.7678   -1.9627   29.7228 N   0  0  0  0  0  0  0  0  0  0  0  0
   -2.0812   -0.8294   29.0368 C   0  0  0  0  0  0  0  0  0  0  0  0
   -2.3627   -0.6550   27.6721 C   0  0  0  0  0  0  0  0  0  0  0  0
   -2.4180    0.6358   27.3315 N   0  0  0  0  0  0  0  0  0  0  0  0
   -2.1986    1.2820   28.4881 N   0  0  0  0  0  0  0  0  0  0  0  0
   -1.9946    0.4412   29.5444 C   0  0  0  0  0  0  0  0  0  0  0  0
    1.9505   -4.3595   33.4321 C   0  0  0  0  0  0  0  0  0  0  0  0
    2.7697   -3.1030   33.8209 C   0  0  0  0  0  0  0  0  0  0  0  0
    3.8788   -2.8368   32.9481 O   0  0  0  0  0  0  0  0  0  0  0  0
    4.7660   -3.9081   32.7468 C   0  0  0  0  0  0  0  0  0  0  0  0
    1.2979   -0.7922   36.0683 H   0  0  0  0  0  0  0  0  0  0  0  0
    2.6919    0.3052   36.0440 H   0  0  0  0  0  0  0  0  0  0  0  0
    2.9684   -1.4410   36.1418 H   0  0  0  0  0  0  0  0  0  0  0  0
    0.8687   -2.1129   34.2153 H   0  0  0  0  0  0  0  0  0  0  0  0
    2.3522   -0.9470   31.8536 H   0  0  0  0  0  0  0  0  0  0  0  0
    0.6686   -1.0515   32.1240 H   0  0  0  0  0  0  0  0  0  0  0  0
    2.6184   -2.9805   30.9724 H   0  0  0  0  0  0  0  0  0  0  0  0
    1.0343   -2.7132   30.4388 H   0  0  0  0  0  0  0  0  0  0  0  0
    2.1887   -6.1832   31.7068 H   0  0  0  0  0  0  0  0  0  0  0  0
    2.5888   -5.0254   30.4619 H   0  0  0  0  0  0  0  0  0  0  0  0
    1.1820   -6.8366   29.5941 H   0  0  0  0  0  0  0  0  0  0  0  0
    0.2946   -5.3152   29.4899 H   0  0  0  0  0  0  0  0  0  0  0  0
   -1.6620   -7.3412   34.8963 H   0  0  0  0  0  0  0  0  0  0  0  0
   -1.8293   -5.6925   34.6210 H   0  0  0  0  0  0  0  0  0  0  0  0
   -0.7144   -4.0648   33.2132 H   0  0  0  0  0  0  0  0  0  0  0  0
   -1.1279   -4.0232   30.2847 H   0  0  0  0  0  0  0  0  0  0  0  0
   -1.5214   -2.7929   29.2131 H   0  0  0  0  0  0  0  0  0  0  0  0
   -2.5168   -1.4022   26.9071 H   0  0  0  0  0  0  0  0  0  0  0  0
   -2.2411    2.2987   28.4832 H   0  0  0  0  0  0  0  0  0  0  0  0
   -1.7613    0.8156   30.5290 H   0  0  0  0  0  0  0  0  0  0  0  0
    1.2135   -4.5323   34.2269 H   0  0  0  0  0  0  0  0  0  0  0  0
    2.6053   -5.2362   33.4695 H   0  0  0  0  0  0  0  0  0  0  0  0
    3.1637   -3.2226   34.8351 H   0  0  0  0  0  0  0  0  0  0  0  0
    5.0345   -4.3854   33.6942 H   0  0  0  0  0  0  0  0  0  0  0  0
    4.3424   -4.6391   32.0599 H   0  0  0  0  0  0  0  0  0  0  0  0
    5.6792   -3.5172   32.2892 H   0  0  0  0  0  0  0  0  0  0  0  0
  1  2  1  0
  2  3  1  0
  3  4  1  0
  4  5  1  0
  5  6  1  0
  6  7  1  0
  7  8  1  0
  8  9  1  0
  9 10  2  0
 10 11  1  0
 11 12  2  0
 12 13  1  0
 12 14  1  0
 14 15  1  0
 15 16  1  0
 16 17  1  0
 17 18  2  0
 17 19  1  0
 19 20  1  0
 20 21  1  0
 21 22  2  0
 22 23  1  0
 23 24  1  0
  6 25  1  0
 25 26  1  0
 26 27  1  0
 27 28  1  0
 26  3  1  0
 15  6  1  0
 24 20  2  0
 14  9  1  0
  1 29  1  0
  1 30  1  0
  1 31  1  0
  3 32  1  0
  4 33  1  0
  4 34  1  0
  5 35  1  0
  5 36  1  0
  7 37  1  0
  7 38  1  0
  8 39  1  0
  8 40  1  0
 13 41  1  0
 13 42  1  0
 15 43  1  0
 16 44  1  0
 19 45  1  0
 21 46  1  0
 23 47  1  0
 24 48  1  0
 25 49  1  0
 25 50  1  0
 26 51  1  0
 28 52  1  0
 28 53  1  0
 28 54  1  0
M  END
>  <Energy>  (1000) 
36.58717886614663

>  <compound_id>  (1000) 
4471

>  <target_id>  (1000) 
1

>  <reference_id>  (1000) 
189

>  <inspiration_ids>  (1000) 
[157, 189]

>  <energy_score>  (1000) 
-29.864285852558424

>  <distance_score>  (1000) 
1.3877266252384994

>  <path>  (1000) 
/opt/xchem-fragalysis-2/maxwin/BulkDock/SCRATCH/505735/C4471-P189/C4471-P189.minimised.mol

>  <scratch_subdir>  (1000) 
/opt/xchem-fragalysis-2/maxwin/BulkDock/SCRATCH/505735/C4471-P189

>  <fragmenstein_runtime>  (1000) 
6.394807815551758

>  <fragmenstein_outcome>  (1000) 
too moved

>  <fragmenstein_mode>  (1000) 
expansion

>  <fragmenstein_error>  (1000) 


$$$$
C3912-P157
     RDKit          3D

 47 50  0  0  0  0  0  0  0  0999 V2000
   -0.6691   -2.4506   35.4484 C   0  0  0  0  0  0  0  0  0  0  0  0
    0.4712   -2.7654   34.5090 N   0  0  0  0  0  0  0  0  0  0  0  0
    0.8835   -1.3557   34.8857 C   0  0  0  0  0  0  0  0  0  0  0  0
    1.9984   -0.9155   33.9247 C   0  0  0  0  0  0  0  0  0  0  0  0
    3.1827   -1.6565   33.7850 C   0  0  0  0  0  0  0  0  0  0  0  0
    4.1878   -1.2408   32.9098 C   0  0  0  0  0  0  0  0  0  0  0  0
    4.0338   -0.0676   32.1775 C   0  0  0  0  0  0  0  0  0  0  0  0
    2.8793    0.6953   32.3268 C   0  0  0  0  0  0  0  0  0  0  0  0
    1.8665    0.2750   33.1925 C   0  0  0  0  0  0  0  0  0  0  0  0
    1.0462   -4.0206   34.8437 C   0  0  0  0  0  0  0  0  0  0  0  0
    1.9535   -4.2926   35.5839 O   0  0  0  0  0  0  0  0  0  0  0  0
    0.3958   -5.1499   34.0793 C   0  0  0  0  0  0  0  0  0  0  0  0
    0.0405   -6.3320   34.8641 C   0  0  0  0  0  0  0  0  0  0  0  0
   -0.5659   -7.3952   34.3178 C   0  0  0  0  0  0  0  0  0  0  0  0
   -0.7689   -7.4318   32.9216 C   0  0  0  0  0  0  0  0  0  0  0  0
   -1.2717   -8.3583   32.1372 N   0  0  0  0  0  0  0  0  0  0  0  0
   -1.0739   -7.9652   30.8473 N   0  0  0  0  0  0  0  0  0  0  0  0
   -0.4573   -6.8064   30.8854 C   0  0  0  0  0  0  0  0  0  0  0  0
   -0.3476   -6.3379   32.1698 N   0  0  0  0  0  0  0  0  0  0  0  0
    0.1560   -5.1357   32.7394 C   0  0  0  0  0  0  0  0  0  0  0  0
    0.3132   -3.9557   32.0364 N   0  0  0  0  0  0  0  0  0  0  0  0
   -0.0804   -3.5899   30.6377 C   0  0  0  0  0  0  0  0  0  0  0  0
   -0.5435   -4.2491   29.7896 O   0  0  0  0  0  0  0  0  0  0  0  0
    0.1955   -2.1239   30.6720 N   0  0  0  0  0  0  0  0  0  0  0  0
   -0.0962   -1.1432   29.7695 C   0  0  0  0  0  0  0  0  0  0  0  0
    0.0990    0.2456   29.8134 C   0  0  0  0  0  0  0  0  0  0  0  0
   -0.3730    0.8618   28.7252 N   0  0  0  0  0  0  0  0  0  0  0  0
   -0.8749   -0.1456   27.9819 N   0  0  0  0  0  0  0  0  0  0  0  0
   -0.7393   -1.3604   28.5790 C   0  0  0  0  0  0  0  0  0  0  0  0
   -0.3766   -2.2689   36.4945 H   0  0  0  0  0  0  0  0  0  0  0  0
   -1.2625   -3.3747   35.5161 H   0  0  0  0  0  0  0  0  0  0  0  0
   -1.3900   -1.7266   35.0407 H   0  0  0  0  0  0  0  0  0  0  0  0
    1.3412   -1.3262   35.8873 H   0  0  0  0  0  0  0  0  0  0  0  0
    0.1089   -0.5812   34.7676 H   0  0  0  0  0  0  0  0  0  0  0  0
    3.3495   -2.5563   34.3731 H   0  0  0  0  0  0  0  0  0  0  0  0
    5.0997   -1.8252   32.8135 H   0  0  0  0  0  0  0  0  0  0  0  0
    4.8203    0.2620   31.5030 H   0  0  0  0  0  0  0  0  0  0  0  0
    2.7715    1.6239   31.7695 H   0  0  0  0  0  0  0  0  0  0  0  0
    0.9806    0.8987   33.2950 H   0  0  0  0  0  0  0  0  0  0  0  0
    0.2328   -6.3097   35.9349 H   0  0  0  0  0  0  0  0  0  0  0  0
   -0.8653   -8.2467   34.9208 H   0  0  0  0  0  0  0  0  0  0  0  0
   -0.0595   -6.3082   30.0199 H   0  0  0  0  0  0  0  0  0  0  0  0
    0.7583   -3.1647   32.4758 H   0  0  0  0  0  0  0  0  0  0  0  0
    0.5220   -1.8689   31.5848 H   0  0  0  0  0  0  0  0  0  0  0  0
    0.5560    0.8490   30.5816 H   0  0  0  0  0  0  0  0  0  0  0  0
   -1.2971    0.0562   27.0792 H   0  0  0  0  0  0  0  0  0  0  0  0
   -1.1240   -2.2544   28.1080 H   0  0  0  0  0  0  0  0  0  0  0  0
  1  2  1  0
  2  3  1  0
  3  4  1  0
  4  5  2  0
  5  6  1  0
  6  7  2  0
  7  8  1  0
  8  9  2  0
  2 10  1  0
 10 11  2  0
 10 12  1  0
 12 13  1  0
 13 14  2  0
 14 15  1  0
 15 16  2  0
 16 17  1  0
 17 18  2  0
 18 19  1  0
 19 20  1  0
 20 21  1  0
 21 22  1  0
 22 23  2  0
 22 24  1  0
 24 25  1  0
 25 26  1  0
 26 27  2  0
 27 28  1  0
 28 29  1  0
  9  4  1  0
 20 12  2  0
 29 25  2  0
 19 15  1  0
  1 30  1  0
  1 31  1  0
  1 32  1  0
  3 33  1  0
  3 34  1  0
  5 35  1  0
  6 36  1  0
  7 37  1  0
  8 38  1  0
  9 39  1  0
 13 40  1  0
 14 41  1  0
 18 42  1  0
 21 43  1  0
 24 44  1  0
 26 45  1  0
 28 46  1  0
 29 47  1  0
M  END
>  <Energy>  (1001) 
92.598435691389824

>  <compound_id>  (1001) 
3912

>  <target_id>  (1001) 
1

>  <reference_id>  (1001) 
157

>  <inspiration_ids>  (1001) 
[157, 190]

>  <energy_score>  (1001) 
-13.893282091070262

>  <distance_score>  (1001) 
2.3769473963127843

>  <path>  (1001) 
/opt/xchem-fragalysis-2/maxwin/BulkDock/SCRATCH/505735/C3912-P157/C3912-P157.minimised.mol

>  <scratch_subdir>  (1001) 
/opt/xchem-fragalysis-2/maxwin/BulkDock/SCRATCH/505735/C3912-P157

>  <fragmenstein_runtime>  (1001) 
11.555246829986572

>  <fragmenstein_outcome>  (1001) 
too moved

>  <fragmenstein_mode>  (1001) 
expansion

>  <fragmenstein_error>  (1001) 


$$$$
C3912-P190
     RDKit          3D

 47 50  0  0  0  0  0  0  0  0999 V2000
    4.5616   -3.6562   31.5374 C   0  0  0  0  0  0  0  0  0  0  0  0
    3.7748   -2.7299   30.6542 N   0  0  0  0  0  0  0  0  0  0  0  0
    4.9434   -1.8181   30.9370 C   0  0  0  0  0  0  0  0  0  0  0  0
    4.4656   -0.3887   30.7053 C   0  0  0  0  0  0  0  0  0  0  0  0
    4.7091    0.2567   29.4882 C   0  0  0  0  0  0  0  0  0  0  0  0
    4.2666    1.5645   29.2816 C   0  0  0  0  0  0  0  0  0  0  0  0
    3.5661    2.2341   30.2833 C   0  0  0  0  0  0  0  0  0  0  0  0
    3.3057    1.5972   31.4947 C   0  0  0  0  0  0  0  0  0  0  0  0
    3.7503    0.2910   31.7052 C   0  0  0  0  0  0  0  0  0  0  0  0
    3.3864   -3.4073   29.4508 C   0  0  0  0  0  0  0  0  0  0  0  0
    3.9405   -3.4933   28.3885 O   0  0  0  0  0  0  0  0  0  0  0  0
    2.0897   -4.1222   29.7049 C   0  0  0  0  0  0  0  0  0  0  0  0
    2.0746   -5.5754   29.5303 C   0  0  0  0  0  0  0  0  0  0  0  0
    1.0958   -6.3379   30.0495 C   0  0  0  0  0  0  0  0  0  0  0  0
    0.1399   -5.7390   30.8881 C   0  0  0  0  0  0  0  0  0  0  0  0
   -0.7816   -6.2377   31.6753 N   0  0  0  0  0  0  0  0  0  0  0  0
   -1.4170   -5.1803   32.2694 N   0  0  0  0  0  0  0  0  0  0  0  0
   -0.9115   -4.0697   31.7876 C   0  0  0  0  0  0  0  0  0  0  0  0
    0.0948   -4.3569   30.9085 N   0  0  0  0  0  0  0  0  0  0  0  0
    0.9848   -3.5212   30.2088 C   0  0  0  0  0  0  0  0  0  0  0  0
    0.6012   -2.2190   29.9895 N   0  0  0  0  0  0  0  0  0  0  0  0
    1.1679   -1.1706   29.0728 C   0  0  0  0  0  0  0  0  0  0  0  0
    2.1205   -1.1986   28.3896 O   0  0  0  0  0  0  0  0  0  0  0  0
    0.1155   -0.1280   29.2106 N   0  0  0  0  0  0  0  0  0  0  0  0
   -0.0811    1.0265   28.5259 C   0  0  0  0  0  0  0  0  0  0  0  0
    0.7859    1.7112   27.6629 C   0  0  0  0  0  0  0  0  0  0  0  0
    0.2140    2.7963   27.1318 N   0  0  0  0  0  0  0  0  0  0  0  0
   -1.0222    2.7950   27.6644 N   0  0  0  0  0  0  0  0  0  0  0  0
   -1.2448    1.7414   28.5020 C   0  0  0  0  0  0  0  0  0  0  0  0
    5.5462   -3.9522   31.1407 H   0  0  0  0  0  0  0  0  0  0  0  0
    4.0049   -4.6025   31.5609 H   0  0  0  0  0  0  0  0  0  0  0  0
    4.5607   -3.3593   32.5975 H   0  0  0  0  0  0  0  0  0  0  0  0
    5.7543   -2.0244   30.2207 H   0  0  0  0  0  0  0  0  0  0  0  0
    5.3585   -1.7612   31.9591 H   0  0  0  0  0  0  0  0  0  0  0  0
    5.2184   -0.2648   28.6803 H   0  0  0  0  0  0  0  0  0  0  0  0
    4.4501    2.0529   28.3279 H   0  0  0  0  0  0  0  0  0  0  0  0
    3.2109    3.2470   30.1101 H   0  0  0  0  0  0  0  0  0  0  0  0
    2.7538    2.1190   32.2713 H   0  0  0  0  0  0  0  0  0  0  0  0
    3.5348   -0.1981   32.6515 H   0  0  0  0  0  0  0  0  0  0  0  0
    2.8279   -5.9947   28.8689 H   0  0  0  0  0  0  0  0  0  0  0  0
    1.0000   -7.3981   29.8465 H   0  0  0  0  0  0  0  0  0  0  0  0
   -1.2055   -3.0716   32.0743 H   0  0  0  0  0  0  0  0  0  0  0  0
   -0.1785   -1.8377   30.4870 H   0  0  0  0  0  0  0  0  0  0  0  0
   -0.5991   -0.4593   29.8222 H   0  0  0  0  0  0  0  0  0  0  0  0
    1.8034    1.4592   27.3933 H   0  0  0  0  0  0  0  0  0  0  0  0
   -1.6647    3.5416   27.4129 H   0  0  0  0  0  0  0  0  0  0  0  0
   -2.2061    1.6008   28.9628 H   0  0  0  0  0  0  0  0  0  0  0  0
  1  2  1  0
  2  3  1  0
  3  4  1  0
  4  5  2  0
  5  6  1  0
  6  7  2  0
  7  8  1  0
  8  9  2  0
  2 10  1  0
 10 11  2  0
 10 12  1  0
 12 13  1  0
 13 14  2  0
 14 15  1  0
 15 16  2  0
 16 17  1  0
 17 18  2  0
 18 19  1  0
 19 20  1  0
 20 21  1  0
 21 22  1  0
 22 23  2  0
 22 24  1  0
 24 25  1  0
 25 26  1  0
 26 27  2  0
 27 28  1  0
 28 29  1  0
  9  4  1  0
 20 12  2  0
 29 25  2  0
 19 15  1  0
  1 30  1  0
  1 31  1  0
  1 32  1  0
  3 33  1  0
  3 34  1  0
  5 35  1  0
  6 36  1  0
  7 37  1  0
  8 38  1  0
  9 39  1  0
 13 40  1  0
 14 41  1  0
 18 42  1  0
 21 43  1  0
 24 44  1  0
 26 45  1  0
 28 46  1  0
 29 47  1  0
M  END
>  <Energy>  (1002) 
112.65667610243014

>  <compound_id>  (1002) 
3912

>  <target_id>  (1002) 
1

>  <reference_id>  (1002) 
190

>  <inspiration_ids>  (1002) 
[157, 190]

>  <energy_score>  (1002) 
6.164958319972982

>  <distance_score>  (1002) 
3.4891718651236174

>  <path>  (1002) 
/opt/xchem-fragalysis-2/maxwin/BulkDock/SCRATCH/505735/C3912-P190/C3912-P190.minimised.mol

>  <scratch_subdir>  (1002) 
/opt/xchem-fragalysis-2/maxwin/BulkDock/SCRATCH/505735/C3912-P190

>  <fragmenstein_runtime>  (1002) 
9.440412521362305

>  <fragmenstein_outcome>  (1002) 
too moved

>  <fragmenstein_mode>  (1002) 
expansion

>  <fragmenstein_error>  (1002) 


$$$$
C3912-P157
     RDKit          2D

  0  0  0  0  0  0  0  0  0  0999 V2000
M  END
>  <compound_id>  (1003) 
3912

>  <target_id>  (1003) 
1

>  <reference_id>  (1003) 
157

>  <inspiration_ids>  (1003) 
[157, 194]

>  <energy_score>  (1003) 
nan

>  <distance_score>  (1003) 
nan

>  <path>  (1003) 
/opt/xchem-fragalysis-2/maxwin/BulkDock/SCRATCH/505735/C3912-P157/C3912-P157.minimised.mol

>  <scratch_subdir>  (1003) 
/opt/xchem-fragalysis-2/maxwin/BulkDock/SCRATCH/505735/C3912-P157

>  <fragmenstein_runtime>  (1003) 
0.2835721969604492

>  <fragmenstein_outcome>  (1003) 
too distant

>  <fragmenstein_mode>  (1003) 
expansion

>  <fragmenstein_error>  (1003) 
DistanceError: hit0+hit1

$$$$
C4472-P157
     RDKit          3D

 53 56  0  0  0  0  0  0  0  0999 V2000
    6.5735   -2.7383   35.9878 C   0  0  0  0  0  0  0  0  0  0  0  0
    5.2647   -3.2689   35.7310 N   0  0  0  0  0  0  0  0  0  0  0  0
    4.3729   -4.0138   36.5669 C   0  0  0  0  0  0  0  0  0  0  0  0
    4.4553   -4.3190   37.7210 O   0  0  0  0  0  0  0  0  0  0  0  0
    3.1106   -4.4501   35.7929 C   0  0  0  0  0  0  0  0  0  0  0  0
    2.2875   -3.2666   35.2549 C   0  0  0  0  0  0  0  0  0  0  0  0
    2.2805   -3.2071   33.7297 C   0  0  0  0  0  0  0  0  0  0  0  0
    1.7011   -4.4945   33.0622 C   0  0  0  0  0  0  0  0  0  0  0  0
    2.2499   -4.5330   31.5891 C   0  0  0  0  0  0  0  0  0  0  0  0
    1.4801   -5.4078   30.5766 C   0  0  0  0  0  0  0  0  0  0  0  0
    0.3629   -6.1691   31.1873 C   0  0  0  0  0  0  0  0  0  0  0  0
   -0.1143   -7.3445   30.8470 N   0  0  0  0  0  0  0  0  0  0  0  0
   -0.9558   -7.7513   31.8555 N   0  0  0  0  0  0  0  0  0  0  0  0
   -0.9531   -6.8308   32.7950 C   0  0  0  0  0  0  0  0  0  0  0  0
   -1.4444   -6.9670   34.0415 N   0  0  0  0  0  0  0  0  0  0  0  0
   -0.2784   -5.7332   32.3263 N   0  0  0  0  0  0  0  0  0  0  0  0
    0.1213   -4.4919   32.9895 C   0  0  0  0  0  0  0  0  0  0  0  0
   -0.2799   -3.2446   32.3311 N   0  0  0  0  0  0  0  0  0  0  0  0
   -0.7614   -2.9888   30.9496 C   0  0  0  0  0  0  0  0  0  0  0  0
   -1.0079   -3.7377   30.0894 O   0  0  0  0  0  0  0  0  0  0  0  0
   -0.7416   -1.5034   30.9484 N   0  0  0  0  0  0  0  0  0  0  0  0
   -0.9145   -0.6129   29.9301 C   0  0  0  0  0  0  0  0  0  0  0  0
   -1.3297   -0.8402   28.6016 C   0  0  0  0  0  0  0  0  0  0  0  0
   -1.3292    0.2853   27.8820 N   0  0  0  0  0  0  0  0  0  0  0  0
   -0.9150    1.2206   28.7415 N   0  0  0  0  0  0  0  0  0  0  0  0
   -0.6089    0.7217   29.9791 C   0  0  0  0  0  0  0  0  0  0  0  0
    2.1876   -5.7479   33.8585 C   0  0  0  0  0  0  0  0  0  0  0  0
    3.4269   -5.4928   34.7128 C   0  0  0  0  0  0  0  0  0  0  0  0
    6.7703   -2.7452   37.0623 H   0  0  0  0  0  0  0  0  0  0  0  0
    6.6200   -1.7196   35.5973 H   0  0  0  0  0  0  0  0  0  0  0  0
    7.3065   -3.3644   35.4739 H   0  0  0  0  0  0  0  0  0  0  0  0
    4.9116   -3.2753   34.7854 H   0  0  0  0  0  0  0  0  0  0  0  0
    2.4757   -4.9458   36.5432 H   0  0  0  0  0  0  0  0  0  0  0  0
    1.2522   -3.3631   35.6060 H   0  0  0  0  0  0  0  0  0  0  0  0
    2.6538   -2.3154   35.6586 H   0  0  0  0  0  0  0  0  0  0  0  0
    1.7492   -2.3055   33.4107 H   0  0  0  0  0  0  0  0  0  0  0  0
    3.3115   -3.0528   33.3853 H   0  0  0  0  0  0  0  0  0  0  0  0
    2.2629   -3.5119   31.1816 H   0  0  0  0  0  0  0  0  0  0  0  0
    3.3047   -4.8328   31.6014 H   0  0  0  0  0  0  0  0  0  0  0  0
    2.1847   -6.0881   30.0955 H   0  0  0  0  0  0  0  0  0  0  0  0
    1.1117   -4.7852   29.7563 H   0  0  0  0  0  0  0  0  0  0  0  0
   -1.6288   -7.9446   34.2948 H   0  0  0  0  0  0  0  0  0  0  0  0
   -1.0524   -6.4592   34.8240 H   0  0  0  0  0  0  0  0  0  0  0  0
   -0.3161   -4.4771   33.9925 H   0  0  0  0  0  0  0  0  0  0  0  0
   -0.2490   -2.3814   32.8358 H   0  0  0  0  0  0  0  0  0  0  0  0
   -0.4084   -1.1768   31.8306 H   0  0  0  0  0  0  0  0  0  0  0  0
   -1.6306   -1.7679   28.1265 H   0  0  0  0  0  0  0  0  0  0  0  0
   -0.8642    2.1805   28.4120 H   0  0  0  0  0  0  0  0  0  0  0  0
   -0.2053    1.3586   30.7505 H   0  0  0  0  0  0  0  0  0  0  0  0
    2.3902   -6.5761   33.1772 H   0  0  0  0  0  0  0  0  0  0  0  0
    1.3976   -6.0959   34.5360 H   0  0  0  0  0  0  0  0  0  0  0  0
    3.7409   -6.4273   35.1943 H   0  0  0  0  0  0  0  0  0  0  0  0
    4.2631   -5.1895   34.0729 H   0  0  0  0  0  0  0  0  0  0  0  0
  1  2  1  0
  2  3  1  0
  3  4  2  0
  3  5  1  0
  5  6  1  0
  6  7  1  0
  7  8  1  0
  8  9  1  0
  9 10  1  0
 10 11  1  0
 11 12  2  0
 12 13  1  0
 13 14  2  0
 14 15  1  0
 14 16  1  0
 16 17  1  0
 17 18  1  0
 18 19  1  0
 19 20  2  0
 19 21  1  0
 21 22  1  0
 22 23  1  0
 23 24  2  0
 24 25  1  0
 25 26  1  0
  8 27  1  0
 27 28  1  0
 28  5  1  0
 17  8  1  0
 26 22  2  0
 16 11  1  0
  1 29  1  0
  1 30  1  0
  1 31  1  0
  2 32  1  0
  5 33  1  0
  6 34  1  0
  6 35  1  0
  7 36  1  0
  7 37  1  0
  9 38  1  0
  9 39  1  0
 10 40  1  0
 10 41  1  0
 15 42  1  0
 15 43  1  0
 17 44  1  0
 18 45  1  0
 21 46  1  0
 23 47  1  0
 25 48  1  0
 26 49  1  0
 27 50  1  0
 27 51  1  0
 28 52  1  0
 28 53  1  0
M  END
>  <Energy>  (1004) 
-31.306728004246139

>  <compound_id>  (1004) 
4472

>  <target_id>  (1004) 
1

>  <reference_id>  (1004) 
157

>  <inspiration_ids>  (1004) 
[157, 195]

>  <energy_score>  (1004) 
-62.00328376238612

>  <distance_score>  (1004) 
2.3173143285903737

>  <path>  (1004) 
/opt/xchem-fragalysis-2/maxwin/BulkDock/SCRATCH/505735/C4472-P157/C4472-P157.minimised.mol

>  <scratch_subdir>  (1004) 
/opt/xchem-fragalysis-2/maxwin/BulkDock/SCRATCH/505735/C4472-P157

>  <fragmenstein_runtime>  (1004) 
7.170356035232544

>  <fragmenstein_outcome>  (1004) 
too moved

>  <fragmenstein_mode>  (1004) 
expansion

>  <fragmenstein_error>  (1004) 


$$$$
C4472-P195
     RDKit          3D

 53 56  0  0  0  0  0  0  0  0999 V2000
    6.4892   -3.9433   37.1566 C   0  0  0  0  0  0  0  0  0  0  0  0
    5.1525   -4.3381   36.8148 N   0  0  0  0  0  0  0  0  0  0  0  0
    4.1653   -5.0560   37.5624 C   0  0  0  0  0  0  0  0  0  0  0  0
    4.1718   -5.4440   38.6943 O   0  0  0  0  0  0  0  0  0  0  0  0
    2.9029   -5.3226   36.7138 C   0  0  0  0  0  0  0  0  0  0  0  0
    2.1687   -4.0398   36.2870 C   0  0  0  0  0  0  0  0  0  0  0  0
    2.2348   -3.7910   34.7809 C   0  0  0  0  0  0  0  0  0  0  0  0
    1.6345   -4.9507   33.9228 C   0  0  0  0  0  0  0  0  0  0  0  0
    2.3312   -4.9108   32.4977 C   0  0  0  0  0  0  0  0  0  0  0  0
    1.4899   -5.4102   31.2926 C   0  0  0  0  0  0  0  0  0  0  0  0
    0.3637   -6.2646   31.7266 C   0  0  0  0  0  0  0  0  0  0  0  0
   -0.0967   -7.3793   31.2131 N   0  0  0  0  0  0  0  0  0  0  0  0
   -0.9729   -7.9120   32.1331 N   0  0  0  0  0  0  0  0  0  0  0  0
   -1.0060   -7.1242   33.1885 C   0  0  0  0  0  0  0  0  0  0  0  0
   -1.5285   -7.4236   34.3970 N   0  0  0  0  0  0  0  0  0  0  0  0
   -0.3119   -5.9838   32.8925 N   0  0  0  0  0  0  0  0  0  0  0  0
    0.0721   -4.8188   33.6966 C   0  0  0  0  0  0  0  0  0  0  0  0
   -0.1565   -3.5373   33.0123 N   0  0  0  0  0  0  0  0  0  0  0  0
   -1.0764   -3.1814   31.9134 C   0  0  0  0  0  0  0  0  0  0  0  0
   -1.8985   -3.8207   31.3810 O   0  0  0  0  0  0  0  0  0  0  0  0
   -0.5823   -1.8028   31.6127 N   0  0  0  0  0  0  0  0  0  0  0  0
   -0.8843   -0.9537   30.5892 C   0  0  0  0  0  0  0  0  0  0  0  0
   -1.6027   -1.2108   29.4065 C   0  0  0  0  0  0  0  0  0  0  0  0
   -1.6187   -0.1526   28.5945 N   0  0  0  0  0  0  0  0  0  0  0  0
   -0.9047    0.7702   29.2441 N   0  0  0  0  0  0  0  0  0  0  0  0
   -0.4214    0.3313   30.4479 C   0  0  0  0  0  0  0  0  0  0  0  0
    1.9570   -6.3135   34.6243 C   0  0  0  0  0  0  0  0  0  0  0  0
    3.1820   -6.2602   35.5331 C   0  0  0  0  0  0  0  0  0  0  0  0
    6.7297   -4.2830   38.1665 H   0  0  0  0  0  0  0  0  0  0  0  0
    6.5538   -2.8544   37.1005 H   0  0  0  0  0  0  0  0  0  0  0  0
    7.1773   -4.3896   36.4354 H   0  0  0  0  0  0  0  0  0  0  0  0
    4.7737   -4.1047   35.9095 H   0  0  0  0  0  0  0  0  0  0  0  0
    2.2167   -5.8546   37.3907 H   0  0  0  0  0  0  0  0  0  0  0  0
    1.1133   -4.1206   36.5778 H   0  0  0  0  0  0  0  0  0  0  0  0
    2.5629   -3.1673   36.8214 H   0  0  0  0  0  0  0  0  0  0  0  0
    3.2859   -3.6425   34.5025 H   0  0  0  0  0  0  0  0  0  0  0  0
    1.7560   -2.8301   34.5774 H   0  0  0  0  0  0  0  0  0  0  0  0
    2.6400   -3.8828   32.2627 H   0  0  0  0  0  0  0  0  0  0  0  0
    3.2657   -5.4799   32.5474 H   0  0  0  0  0  0  0  0  0  0  0  0
    2.1367   -5.9377   30.5874 H   0  0  0  0  0  0  0  0  0  0  0  0
    1.0960   -4.5504   30.7385 H   0  0  0  0  0  0  0  0  0  0  0  0
   -1.6573   -8.4434   34.5117 H   0  0  0  0  0  0  0  0  0  0  0  0
   -1.0996   -7.0589   35.2378 H   0  0  0  0  0  0  0  0  0  0  0  0
   -0.4927   -4.8229   34.6330 H   0  0  0  0  0  0  0  0  0  0  0  0
    0.4732   -2.7816   33.1714 H   0  0  0  0  0  0  0  0  0  0  0  0
    0.0702   -1.5242   32.3152 H   0  0  0  0  0  0  0  0  0  0  0  0
   -2.0848   -2.1259   29.0827 H   0  0  0  0  0  0  0  0  0  0  0  0
   -0.7929    1.6794   28.8046 H   0  0  0  0  0  0  0  0  0  0  0  0
    0.1953    0.9691   31.0621 H   0  0  0  0  0  0  0  0  0  0  0  0
    2.0997   -7.1037   33.8835 H   0  0  0  0  0  0  0  0  0  0  0  0
    1.1097   -6.6239   35.2474 H   0  0  0  0  0  0  0  0  0  0  0  0
    3.4026   -7.2648   35.9149 H   0  0  0  0  0  0  0  0  0  0  0  0
    4.0629   -5.9553   34.9572 H   0  0  0  0  0  0  0  0  0  0  0  0
  1  2  1  0
  2  3  1  0
  3  4  2  0
  3  5  1  0
  5  6  1  0
  6  7  1  0
  7  8  1  0
  8  9  1  0
  9 10  1  0
 10 11  1  0
 11 12  2  0
 12 13  1  0
 13 14  2  0
 14 15  1  0
 14 16  1  0
 16 17  1  0
 17 18  1  0
 18 19  1  0
 19 20  2  0
 19 21  1  0
 21 22  1  0
 22 23  1  0
 23 24  2  0
 24 25  1  0
 25 26  1  0
  8 27  1  0
 27 28  1  0
 28  5  1  0
 17  8  1  0
 26 22  2  0
 16 11  1  0
  1 29  1  0
  1 30  1  0
  1 31  1  0
  2 32  1  0
  5 33  1  0
  6 34  1  0
  6 35  1  0
  7 36  1  0
  7 37  1  0
  9 38  1  0
  9 39  1  0
 10 40  1  0
 10 41  1  0
 15 42  1  0
 15 43  1  0
 17 44  1  0
 18 45  1  0
 21 46  1  0
 23 47  1  0
 25 48  1  0
 26 49  1  0
 27 50  1  0
 27 51  1  0
 28 52  1  0
 28 53  1  0
M  END
>  <Energy>  (1005) 
-26.715135347996629

>  <compound_id>  (1005) 
4472

>  <target_id>  (1005) 
1

>  <reference_id>  (1005) 
195

>  <inspiration_ids>  (1005) 
[157, 195]

>  <energy_score>  (1005) 
-57.4116911061337

>  <distance_score>  (1005) 
2.736787137039263

>  <path>  (1005) 
/opt/xchem-fragalysis-2/maxwin/BulkDock/SCRATCH/505735/C4472-P195/C4472-P195.minimised.mol

>  <scratch_subdir>  (1005) 
/opt/xchem-fragalysis-2/maxwin/BulkDock/SCRATCH/505735/C4472-P195

>  <fragmenstein_runtime>  (1005) 
8.963521957397461

>  <fragmenstein_outcome>  (1005) 
too moved

>  <fragmenstein_mode>  (1005) 
expansion

>  <fragmenstein_error>  (1005) 


$$$$
C4473-P157
     RDKit          3D

 53 57  0  0  0  0  0  0  0  0999 V2000
   -0.9693   -4.4156   34.6456 O   0  0  0  0  0  0  0  0  0  0  0  0
   -0.6063   -3.2727   33.9087 C   0  0  0  0  0  0  0  0  0  0  0  0
   -1.7612   -2.7841   33.1642 N   0  0  0  0  0  0  0  0  0  0  0  0
   -1.6948   -2.7781   31.7064 C   0  0  0  0  0  0  0  0  0  0  0  0
   -1.2719   -1.4585   30.9755 C   0  0  0  0  0  0  0  0  0  0  0  0
   -0.2821   -1.8577   29.4860 C   0  0  0  0  0  0  0  0  0  0  0  0
    1.2744   -1.1195   28.8859 C   0  0  0  0  0  0  0  0  0  0  0  0
    1.9605    0.5199   29.2888 C   0  0  0  0  0  0  0  0  0  0  0  0
    1.2876    1.5035   30.6011 N   0  0  0  0  0  0  0  0  0  0  0  0
    0.1216    1.8906   30.0067 N   0  0  0  0  0  0  0  0  0  0  0  0
   -0.2688    0.5087   29.8600 C   0  0  0  0  0  0  0  0  0  0  0  0
    0.9410   -0.4248   31.1040 C   0  0  0  0  0  0  0  0  0  0  0  0
    1.0471   -1.7809   31.6501 N   0  0  0  0  0  0  0  0  0  0  0  0
    1.2504   -2.1098   33.0287 C   0  0  0  0  0  0  0  0  0  0  0  0
    2.6264   -2.0190   33.3219 O   0  0  0  0  0  0  0  0  0  0  0  0
    0.7377   -3.4648   33.3629 N   0  0  0  0  0  0  0  0  0  0  0  0
    1.1340   -4.5508   32.4917 C   0  0  0  0  0  0  0  0  0  0  0  0
    2.3493   -4.4994   31.8803 C   0  0  0  0  0  0  0  0  0  0  0  0
    2.5669   -5.1123   30.5947 C   0  0  0  0  0  0  0  0  0  0  0  0
    1.6387   -5.9014   30.0487 C   0  0  0  0  0  0  0  0  0  0  0  0
    0.4959   -6.2557   30.8001 C   0  0  0  0  0  0  0  0  0  0  0  0
   -0.4529   -7.1336   30.5614 N   0  0  0  0  0  0  0  0  0  0  0  0
   -1.2701   -7.1564   31.6529 N   0  0  0  0  0  0  0  0  0  0  0  0
   -0.8018   -6.2843   32.5211 C   0  0  0  0  0  0  0  0  0  0  0  0
    0.2797   -5.6031   32.0199 N   0  0  0  0  0  0  0  0  0  0  0  0
    0.5922    0.6848   31.8954 C   0  0  0  0  0  0  0  0  0  0  0  0
   -0.8951   -0.0828   32.0918 C   0  0  0  0  0  0  0  0  0  0  0  0
   -1.8596   -4.2273   34.9935 H   0  0  0  0  0  0  0  0  0  0  0  0
   -0.5000   -2.5336   34.7129 H   0  0  0  0  0  0  0  0  0  0  0  0
   -2.5729   -3.3154   33.4838 H   0  0  0  0  0  0  0  0  0  0  0  0
   -1.1601   -3.6358   31.3057 H   0  0  0  0  0  0  0  0  0  0  0  0
   -2.7258   -2.9541   31.3735 H   0  0  0  0  0  0  0  0  0  0  0  0
   -2.2207   -1.1209   30.5305 H   0  0  0  0  0  0  0  0  0  0  0  0
   -0.0785   -2.9370   29.5184 H   0  0  0  0  0  0  0  0  0  0  0  0
   -0.9917   -1.7378   28.6524 H   0  0  0  0  0  0  0  0  0  0  0  0
    2.0691   -1.8398   29.1235 H   0  0  0  0  0  0  0  0  0  0  0  0
    1.1851   -1.1248   27.7931 H   0  0  0  0  0  0  0  0  0  0  0  0
    3.0286    0.4007   29.5226 H   0  0  0  0  0  0  0  0  0  0  0  0
    1.9045    1.1415   28.3833 H   0  0  0  0  0  0  0  0  0  0  0  0
    0.2239    2.3719   29.1104 H   0  0  0  0  0  0  0  0  0  0  0  0
   -0.2563    0.2875   28.7846 H   0  0  0  0  0  0  0  0  0  0  0  0
   -1.3410    0.5359   30.0635 H   0  0  0  0  0  0  0  0  0  0  0  0
    2.0389   -0.3330   31.0452 H   0  0  0  0  0  0  0  0  0  0  0  0
    1.6690   -2.3554   31.0974 H   0  0  0  0  0  0  0  0  0  0  0  0
    0.8007   -1.3698   33.6938 H   0  0  0  0  0  0  0  0  0  0  0  0
    2.8647   -1.1057   33.1030 H   0  0  0  0  0  0  0  0  0  0  0  0
    3.1365   -3.8200   32.1822 H   0  0  0  0  0  0  0  0  0  0  0  0
    3.4716   -4.8534   30.0523 H   0  0  0  0  0  0  0  0  0  0  0  0
    1.8053   -6.3342   29.0769 H   0  0  0  0  0  0  0  0  0  0  0  0
   -1.1900   -6.1741   33.5152 H   0  0  0  0  0  0  0  0  0  0  0  0
    1.1693    0.8420   32.8096 H   0  0  0  0  0  0  0  0  0  0  0  0
   -0.9611   -0.4417   33.1224 H   0  0  0  0  0  0  0  0  0  0  0  0
   -1.7119    0.6437   32.0271 H   0  0  0  0  0  0  0  0  0  0  0  0
  1  2  1  0
  2  3  1  0
  3  4  1  0
  4  5  1  0
  5  6  1  0
  6  7  1  0
  7  8  1  0
  8  9  1  0
  9 10  1  0
 10 11  1  0
 11 12  1  0
 12 13  1  0
 13 14  1  0
 14 15  1  0
 14 16  1  0
 16 17  1  0
 17 18  2  0
 18 19  1  0
 19 20  2  0
 20 21  1  0
 21 22  2  0
 22 23  1  0
 23 24  2  0
 24 25  1  0
 12 26  1  0
 26 27  1  0
 16  2  1  0
 25 17  1  0
 27  5  1  0
 26  9  1  0
 25 21  1  0
  1 28  1  0
  2 29  1  0
  3 30  1  0
  4 31  1  0
  4 32  1  0
  5 33  1  0
  6 34  1  0
  6 35  1  0
  7 36  1  0
  7 37  1  0
  8 38  1  0
  8 39  1  0
 10 40  1  0
 11 41  1  0
 11 42  1  0
 12 43  1  0
 13 44  1  0
 14 45  1  0
 15 46  1  0
 18 47  1  0
 19 48  1  0
 20 49  1  0
 24 50  1  0
 26 51  1  0
 27 52  1  0
 27 53  1  0
M  END
>  <Energy>  (1006) 
357.88890206850999

>  <compound_id>  (1006) 
4473

>  <target_id>  (1006) 
1

>  <reference_id>  (1006) 
157

>  <inspiration_ids>  (1006) 
[157, 196]

>  <energy_score>  (1006) 
374.07002357611844

>  <distance_score>  (1006) 
2.15587926699001

>  <path>  (1006) 
/opt/xchem-fragalysis-2/maxwin/BulkDock/SCRATCH/505735/C4473-P157/C4473-P157.minimised.mol

>  <scratch_subdir>  (1006) 
/opt/xchem-fragalysis-2/maxwin/BulkDock/SCRATCH/505735/C4473-P157

>  <fragmenstein_runtime>  (1006) 
5.507339239120483

>  <fragmenstein_outcome>  (1006) 
too moved

>  <fragmenstein_mode>  (1006) 
expansion

>  <fragmenstein_error>  (1006) 


$$$$
C4473-P196
     RDKit          3D

 53 57  0  0  0  0  0  0  0  0999 V2000
   -0.9210   -3.9217   34.6887 O   0  0  0  0  0  0  0  0  0  0  0  0
   -0.7132   -3.2513   33.4728 C   0  0  0  0  0  0  0  0  0  0  0  0
   -1.9418   -3.4150   32.7538 N   0  0  0  0  0  0  0  0  0  0  0  0
   -1.9771   -3.2578   31.3234 C   0  0  0  0  0  0  0  0  0  0  0  0
   -1.1073   -2.2588   30.6035 C   0  0  0  0  0  0  0  0  0  0  0  0
   -1.3452   -2.3609   29.0987 C   0  0  0  0  0  0  0  0  0  0  0  0
   -1.1494   -1.1118   28.2536 C   0  0  0  0  0  0  0  0  0  0  0  0
    0.1521   -0.3909   28.5365 C   0  0  0  0  0  0  0  0  0  0  0  0
    0.0542    0.5606   29.6576 N   0  0  0  0  0  0  0  0  0  0  0  0
    1.3200    1.2436   29.7360 N   0  0  0  0  0  0  0  0  0  0  0  0
    2.1756    0.3686   30.5391 C   0  0  0  0  0  0  0  0  0  0  0  0
    1.2735   -0.4186   31.5313 C   0  0  0  0  0  0  0  0  0  0  0  0
    1.7565   -1.8149   31.6327 N   0  0  0  0  0  0  0  0  0  0  0  0
    1.5160   -2.5648   32.8559 C   0  0  0  0  0  0  0  0  0  0  0  0
    2.7756   -3.1262   33.1640 O   0  0  0  0  0  0  0  0  0  0  0  0
    0.5758   -3.6976   32.9680 N   0  0  0  0  0  0  0  0  0  0  0  0
    0.6387   -4.8822   32.1678 C   0  0  0  0  0  0  0  0  0  0  0  0
    1.3214   -4.9067   30.9988 C   0  0  0  0  0  0  0  0  0  0  0  0
    1.1768   -5.9939   30.0606 C   0  0  0  0  0  0  0  0  0  0  0  0
    0.3615   -7.0302   30.3078 C   0  0  0  0  0  0  0  0  0  0  0  0
   -0.3348   -7.0857   31.5264 C   0  0  0  0  0  0  0  0  0  0  0  0
   -1.1786   -7.9783   31.9854 N   0  0  0  0  0  0  0  0  0  0  0  0
   -1.4375   -7.6493   33.2852 N   0  0  0  0  0  0  0  0  0  0  0  0
   -0.7565   -6.5598   33.5676 C   0  0  0  0  0  0  0  0  0  0  0  0
   -0.1292   -6.0649   32.4515 N   0  0  0  0  0  0  0  0  0  0  0  0
   -0.1275    0.0037   31.0009 C   0  0  0  0  0  0  0  0  0  0  0  0
   -1.3218   -0.8909   31.1951 C   0  0  0  0  0  0  0  0  0  0  0  0
   -1.8640   -4.1815   34.6230 H   0  0  0  0  0  0  0  0  0  0  0  0
   -0.6588   -2.1958   33.7554 H   0  0  0  0  0  0  0  0  0  0  0  0
   -2.6746   -2.8823   33.2198 H   0  0  0  0  0  0  0  0  0  0  0  0
   -1.7510   -4.2332   30.8995 H   0  0  0  0  0  0  0  0  0  0  0  0
   -3.0175   -3.0165   31.0890 H   0  0  0  0  0  0  0  0  0  0  0  0
   -0.0887   -2.5831   30.7137 H   0  0  0  0  0  0  0  0  0  0  0  0
   -0.7176   -3.1678   28.6966 H   0  0  0  0  0  0  0  0  0  0  0  0
   -2.3686   -2.6774   28.9337 H   0  0  0  0  0  0  0  0  0  0  0  0
   -1.1679   -1.4134   27.1982 H   0  0  0  0  0  0  0  0  0  0  0  0
   -1.9961   -0.4278   28.3760 H   0  0  0  0  0  0  0  0  0  0  0  0
    0.9585   -1.1247   28.6624 H   0  0  0  0  0  0  0  0  0  0  0  0
    0.4002    0.1835   27.6352 H   0  0  0  0  0  0  0  0  0  0  0  0
    1.2136    2.1598   30.1781 H   0  0  0  0  0  0  0  0  0  0  0  0
    2.7272   -0.3025   29.8685 H   0  0  0  0  0  0  0  0  0  0  0  0
    2.9305    0.9527   31.0782 H   0  0  0  0  0  0  0  0  0  0  0  0
    1.4077    0.0549   32.5141 H   0  0  0  0  0  0  0  0  0  0  0  0
    2.7753   -1.8109   31.5732 H   0  0  0  0  0  0  0  0  0  0  0  0
    1.3483   -1.8627   33.6810 H   0  0  0  0  0  0  0  0  0  0  0  0
    2.5129   -3.8995   33.6921 H   0  0  0  0  0  0  0  0  0  0  0  0
    1.9169   -4.0727   30.6471 H   0  0  0  0  0  0  0  0  0  0  0  0
    1.7482   -5.9296   29.1401 H   0  0  0  0  0  0  0  0  0  0  0  0
    0.2605   -7.8814   29.6468 H   0  0  0  0  0  0  0  0  0  0  0  0
   -0.6682   -6.1260   34.5485 H   0  0  0  0  0  0  0  0  0  0  0  0
   -0.3889    0.8843   31.6129 H   0  0  0  0  0  0  0  0  0  0  0  0
   -1.5184   -0.9258   32.2700 H   0  0  0  0  0  0  0  0  0  0  0  0
   -2.2233   -0.4264   30.7731 H   0  0  0  0  0  0  0  0  0  0  0  0
  1  2  1  0
  2  3  1  0
  3  4  1  0
  4  5  1  0
  5  6  1  0
  6  7  1  0
  7  8  1  0
  8  9  1  0
  9 10  1  0
 10 11  1  0
 11 12  1  0
 12 13  1  0
 13 14  1  0
 14 15  1  0
 14 16  1  0
 16 17  1  0
 17 18  2  0
 18 19  1  0
 19 20  2  0
 20 21  1  0
 21 22  2  0
 22 23  1  0
 23 24  2  0
 24 25  1  0
 12 26  1  0
 26 27  1  0
 16  2  1  0
 25 17  1  0
 27  5  1  0
 26  9  1  0
 25 21  1  0
  1 28  1  0
  2 29  1  0
  3 30  1  0
  4 31  1  0
  4 32  1  0
  5 33  1  0
  6 34  1  0
  6 35  1  0
  7 36  1  0
  7 37  1  0
  8 38  1  0
  8 39  1  0
 10 40  1  0
 11 41  1  0
 11 42  1  0
 12 43  1  0
 13 44  1  0
 14 45  1  0
 15 46  1  0
 18 47  1  0
 19 48  1  0
 20 49  1  0
 24 50  1  0
 26 51  1  0
 27 52  1  0
 27 53  1  0
M  END
>  <Energy>  (1007) 
-85.218059844416629

>  <compound_id>  (1007) 
4473

>  <target_id>  (1007) 
1

>  <reference_id>  (1007) 
196

>  <inspiration_ids>  (1007) 
[157, 196]

>  <energy_score>  (1007) 
-63.95187629525853

>  <distance_score>  (1007) 
1.939112163766113

>  <path>  (1007) 
/opt/xchem-fragalysis-2/maxwin/BulkDock/SCRATCH/505735/C4473-P196/C4473-P196.minimised.mol

>  <scratch_subdir>  (1007) 
/opt/xchem-fragalysis-2/maxwin/BulkDock/SCRATCH/505735/C4473-P196

>  <fragmenstein_runtime>  (1007) 
3.411113977432251

>  <fragmenstein_outcome>  (1007) 
too moved

>  <fragmenstein_mode>  (1007) 
expansion

>  <fragmenstein_error>  (1007) 


$$$$
C4080-P157
     RDKit          3D

 58 62  0  0  0  0  0  0  0  0999 V2000
    0.4020   -1.9408   32.8430 O   0  0  0  0  0  0  0  0  0  0  0  0
   -0.4142   -2.5794   33.3932 C   0  0  0  0  0  0  0  0  0  0  0  0
   -1.5728   -2.1443   34.2348 N   0  0  0  0  0  0  0  0  0  0  0  0
   -2.0473   -0.8985   34.5161 C   0  0  0  0  0  0  0  0  0  0  0  0
   -3.2520   -0.5026   35.1212 C   0  0  0  0  0  0  0  0  0  0  0  0
   -3.3843    0.8287   35.1471 N   0  0  0  0  0  0  0  0  0  0  0  0
   -2.2161    1.2708   34.6485 N   0  0  0  0  0  0  0  0  0  0  0  0
   -1.4169    0.2745   34.1831 C   0  0  0  0  0  0  0  0  0  0  0  0
   -0.6581   -4.0670   33.3742 N   0  0  0  0  0  0  0  0  0  0  0  0
   -0.0552   -5.0691   32.6392 C   0  0  0  0  0  0  0  0  0  0  0  0
    0.9815   -4.9032   31.7810 C   0  0  0  0  0  0  0  0  0  0  0  0
    2.1012   -3.9532   32.0576 C   0  0  0  0  0  0  0  0  0  0  0  0
    2.7238   -4.0299   33.0287 O   0  0  0  0  0  0  0  0  0  0  0  0
    2.2262   -3.0566   30.8033 N   0  0  0  0  0  0  0  0  0  0  0  0
    3.5131   -1.5651   30.6634 C   0  0  0  0  0  0  0  0  0  0  0  0
    3.4181   -0.2029   29.5705 C   0  0  0  0  0  0  0  0  0  0  0  0
    3.6964   -0.8410   28.2342 C   0  0  0  0  0  0  0  0  0  0  0  0
    3.2178   -2.2562   28.5119 C   0  0  0  0  0  0  0  0  0  0  0  0
    3.9744   -3.4130   27.8880 C   0  0  0  0  0  0  0  0  0  0  0  0
    3.2582   -4.5882   27.6200 C   0  0  0  0  0  0  0  0  0  0  0  0
    3.8500   -5.6758   26.9720 C   0  0  0  0  0  0  0  0  0  0  0  0
    5.1836   -5.6263   26.5650 C   0  0  0  0  0  0  0  0  0  0  0  0
    5.8330   -6.7501   25.7897 C   0  0  0  0  0  0  0  0  0  0  0  0
    4.9367   -7.8453   25.5964 O   0  0  0  0  0  0  0  0  0  0  0  0
    5.9165   -4.4691   26.8629 C   0  0  0  0  0  0  0  0  0  0  0  0
    5.3235   -3.3801   27.5234 C   0  0  0  0  0  0  0  0  0  0  0  0
    3.0882   -2.2039   30.3683 C   0  0  0  0  0  0  0  0  0  0  0  0
    1.1826   -5.8763   30.7071 C   0  0  0  0  0  0  0  0  0  0  0  0
    0.4209   -6.9756   30.5965 C   0  0  0  0  0  0  0  0  0  0  0  0
   -0.5108   -7.2618   31.6061 C   0  0  0  0  0  0  0  0  0  0  0  0
   -1.2886   -8.2942   31.8122 N   0  0  0  0  0  0  0  0  0  0  0  0
   -1.8583   -8.1200   33.0455 N   0  0  0  0  0  0  0  0  0  0  0  0
   -1.4467   -6.9728   33.5320 C   0  0  0  0  0  0  0  0  0  0  0  0
   -0.6735   -6.3291   32.6117 N   0  0  0  0  0  0  0  0  0  0  0  0
   -2.1232   -2.9490   34.4862 H   0  0  0  0  0  0  0  0  0  0  0  0
   -4.0497   -1.1187   35.5148 H   0  0  0  0  0  0  0  0  0  0  0  0
   -2.0367    2.2697   34.6502 H   0  0  0  0  0  0  0  0  0  0  0  0
   -0.4710    0.4805   33.7013 H   0  0  0  0  0  0  0  0  0  0  0  0
   -1.4955   -4.2747   33.8953 H   0  0  0  0  0  0  0  0  0  0  0  0
    3.2795   -0.9776   31.7000 H   0  0  0  0  0  0  0  0  0  0  0  0
    4.6975   -1.7744   30.9723 H   0  0  0  0  0  0  0  0  0  0  0  0
    4.1766    0.5312   29.8591 H   0  0  0  0  0  0  0  0  0  0  0  0
    2.4205    0.2486   29.6355 H   0  0  0  0  0  0  0  0  0  0  0  0
    4.7637   -0.7701   28.0145 H   0  0  0  0  0  0  0  0  0  0  0  0
    3.1521   -0.3596   27.4165 H   0  0  0  0  0  0  0  0  0  0  0  0
    2.1784   -2.3322   28.1502 H   0  0  0  0  0  0  0  0  0  0  0  0
    2.2089   -4.6435   27.8985 H   0  0  0  0  0  0  0  0  0  0  0  0
    3.2577   -6.5582   26.7556 H   0  0  0  0  0  0  0  0  0  0  0  0
    6.1492   -6.3813   24.8087 H   0  0  0  0  0  0  0  0  0  0  0  0
    6.7059   -7.1239   26.3338 H   0  0  0  0  0  0  0  0  0  0  0  0
    5.2399   -8.2931   24.7733 H   0  0  0  0  0  0  0  0  0  0  0  0
    6.9607   -4.3956   26.5575 H   0  0  0  0  0  0  0  0  0  0  0  0
    5.9438   -2.5093   27.7150 H   0  0  0  0  0  0  0  0  0  0  0  0
    1.9290   -1.8055   30.0189 H   0  0  0  0  0  0  0  0  0  0  0  0
    3.7290   -3.2580   30.2606 H   0  0  0  0  0  0  0  0  0  0  0  0
    1.9641   -5.6638   29.9863 H   0  0  0  0  0  0  0  0  0  0  0  0
    0.5544   -7.7136   29.8220 H   0  0  0  0  0  0  0  0  0  0  0  0
   -1.6635   -6.5866   34.5162 H   0  0  0  0  0  0  0  0  0  0  0  0
  1  2  2  0
  2  3  1  0
  3  4  1  0
  4  5  1  0
  5  6  2  0
  6  7  1  0
  7  8  1  0
  2  9  1  0
  9 10  1  0
 10 11  2  0
 11 12  1  0
 12 13  2  0
 12 14  1  0
 14 15  1  0
 15 16  1  0
 16 17  1  0
 17 18  1  0
 18 19  1  0
 19 20  2  0
 20 21  1  0
 21 22  2  0
 22 23  1  0
 23 24  1  0
 22 25  1  0
 25 26  2  0
 18 27  1  0
 11 28  1  0
 28 29  2  0
 29 30  1  0
 30 31  2  0
 31 32  1  0
 32 33  2  0
 33 34  1  0
  8  4  2  0
 34 10  1  0
 27 14  1  0
 34 30  1  0
 26 19  1  0
  3 35  1  0
  5 36  1  0
  7 37  1  0
  8 38  1  0
  9 39  1  0
 15 40  1  0
 15 41  1  0
 16 42  1  0
 16 43  1  0
 17 44  1  0
 17 45  1  0
 18 46  1  0
 20 47  1  0
 21 48  1  0
 23 49  1  0
 23 50  1  0
 24 51  1  0
 25 52  1  0
 26 53  1  0
 27 54  1  0
 27 55  1  0
 28 56  1  0
 29 57  1  0
 33 58  1  0
M  END
>  <Energy>  (1008) 
841.26658739990989

>  <compound_id>  (1008) 
4080

>  <target_id>  (1008) 
1

>  <reference_id>  (1008) 
157

>  <inspiration_ids>  (1008) 
[157, 197]

>  <energy_score>  (1008) 
724.2719059164347

>  <distance_score>  (1008) 
3.115975925633313

>  <path>  (1008) 
/opt/xchem-fragalysis-2/maxwin/BulkDock/SCRATCH/505735/C4080-P157/C4080-P157.minimised.mol

>  <scratch_subdir>  (1008) 
/opt/xchem-fragalysis-2/maxwin/BulkDock/SCRATCH/505735/C4080-P157

>  <fragmenstein_runtime>  (1008) 
19.703083038330078

>  <fragmenstein_outcome>  (1008) 
too moved

>  <fragmenstein_mode>  (1008) 
expansion

>  <fragmenstein_error>  (1008) 


$$$$
C4080-P197
     RDKit          3D

 58 62  0  0  0  0  0  0  0  0999 V2000
   -1.8115   -4.1820   31.8123 O   0  0  0  0  0  0  0  0  0  0  0  0
   -1.1849   -3.8572   32.7451 C   0  0  0  0  0  0  0  0  0  0  0  0
   -1.1907   -2.5864   33.5000 N   0  0  0  0  0  0  0  0  0  0  0  0
   -1.8454   -1.4289   33.2683 C   0  0  0  0  0  0  0  0  0  0  0  0
   -1.9789   -0.2351   33.9831 C   0  0  0  0  0  0  0  0  0  0  0  0
   -2.5243    0.7242   33.2233 N   0  0  0  0  0  0  0  0  0  0  0  0
   -2.6426    0.1351   32.0149 N   0  0  0  0  0  0  0  0  0  0  0  0
   -2.3746   -1.1819   32.0274 C   0  0  0  0  0  0  0  0  0  0  0  0
   -0.0847   -4.5607   33.4464 N   0  0  0  0  0  0  0  0  0  0  0  0
    0.5605   -5.7259   33.1452 C   0  0  0  0  0  0  0  0  0  0  0  0
    1.7543   -5.4341   32.5476 C   0  0  0  0  0  0  0  0  0  0  0  0
    2.6386   -4.3186   33.1194 C   0  0  0  0  0  0  0  0  0  0  0  0
    2.3681   -3.7335   34.0870 O   0  0  0  0  0  0  0  0  0  0  0  0
    3.7795   -4.1660   32.1087 N   0  0  0  0  0  0  0  0  0  0  0  0
    5.3201   -2.9330   32.3368 C   0  0  0  0  0  0  0  0  0  0  0  0
    5.5047   -1.3027   31.6796 C   0  0  0  0  0  0  0  0  0  0  0  0
    5.4708   -1.5374   30.1904 C   0  0  0  0  0  0  0  0  0  0  0  0
    4.5490   -2.7341   30.1623 C   0  0  0  0  0  0  0  0  0  0  0  0
    4.7725   -3.7624   29.0698 C   0  0  0  0  0  0  0  0  0  0  0  0
    3.7035   -4.1027   28.2234 C   0  0  0  0  0  0  0  0  0  0  0  0
    3.8355   -5.1020   27.2536 C   0  0  0  0  0  0  0  0  0  0  0  0
    5.0424   -5.7902   27.0978 C   0  0  0  0  0  0  0  0  0  0  0  0
    5.2121   -6.8360   26.0246 C   0  0  0  0  0  0  0  0  0  0  0  0
    4.0401   -7.6473   25.9176 O   0  0  0  0  0  0  0  0  0  0  0  0
    6.1248   -5.4218   27.9094 C   0  0  0  0  0  0  0  0  0  0  0  0
    5.9920   -4.4238   28.8855 C   0  0  0  0  0  0  0  0  0  0  0  0
    4.7110   -3.3105   31.9271 C   0  0  0  0  0  0  0  0  0  0  0  0
    1.8285   -5.7508   31.1077 C   0  0  0  0  0  0  0  0  0  0  0  0
    0.9236   -6.5115   30.4737 C   0  0  0  0  0  0  0  0  0  0  0  0
   -0.0899   -7.1347   31.2185 C   0  0  0  0  0  0  0  0  0  0  0  0
   -0.9800   -8.0550   30.9299 N   0  0  0  0  0  0  0  0  0  0  0  0
   -1.7150   -8.2736   32.0687 N   0  0  0  0  0  0  0  0  0  0  0  0
   -1.2688   -7.4641   33.0062 C   0  0  0  0  0  0  0  0  0  0  0  0
   -0.2352   -6.7148   32.5254 N   0  0  0  0  0  0  0  0  0  0  0  0
   -0.5899   -2.6721   34.2964 H   0  0  0  0  0  0  0  0  0  0  0  0
   -1.6820   -0.0031   34.9971 H   0  0  0  0  0  0  0  0  0  0  0  0
   -2.9233    0.6905   31.2125 H   0  0  0  0  0  0  0  0  0  0  0  0
   -2.4558   -1.7867   31.1345 H   0  0  0  0  0  0  0  0  0  0  0  0
    0.2917   -3.9594   34.1629 H   0  0  0  0  0  0  0  0  0  0  0  0
    5.2954   -2.6813   33.5249 H   0  0  0  0  0  0  0  0  0  0  0  0
    6.4361   -3.4597   32.3574 H   0  0  0  0  0  0  0  0  0  0  0  0
    6.4571   -0.8934   32.0299 H   0  0  0  0  0  0  0  0  0  0  0  0
    4.6765   -0.6774   32.0358 H   0  0  0  0  0  0  0  0  0  0  0  0
    6.4744   -1.7721   29.8221 H   0  0  0  0  0  0  0  0  0  0  0  0
    5.0881   -0.6803   29.6298 H   0  0  0  0  0  0  0  0  0  0  0  0
    3.5093   -2.3774   30.0747 H   0  0  0  0  0  0  0  0  0  0  0  0
    2.7428   -3.5982   28.3164 H   0  0  0  0  0  0  0  0  0  0  0  0
    2.9890   -5.3379   26.6122 H   0  0  0  0  0  0  0  0  0  0  0  0
    5.4037   -6.3479   25.0648 H   0  0  0  0  0  0  0  0  0  0  0  0
    6.0507   -7.5001   26.2578 H   0  0  0  0  0  0  0  0  0  0  0  0
    4.1716   -8.1492   25.0851 H   0  0  0  0  0  0  0  0  0  0  0  0
    7.0911   -5.9066   27.7799 H   0  0  0  0  0  0  0  0  0  0  0  0
    6.8558   -4.1801   29.4988 H   0  0  0  0  0  0  0  0  0  0  0  0
    3.6673   -2.5857   32.0182 H   0  0  0  0  0  0  0  0  0  0  0  0
    5.1197   -4.3402   31.3536 H   0  0  0  0  0  0  0  0  0  0  0  0
    2.6034   -5.2929   30.5052 H   0  0  0  0  0  0  0  0  0  0  0  0
    1.0081   -6.6877   29.4163 H   0  0  0  0  0  0  0  0  0  0  0  0
   -1.6300   -7.3984   34.0210 H   0  0  0  0  0  0  0  0  0  0  0  0
  1  2  2  0
  2  3  1  0
  3  4  1  0
  4  5  1  0
  5  6  2  0
  6  7  1  0
  7  8  1  0
  2  9  1  0
  9 10  1  0
 10 11  2  0
 11 12  1  0
 12 13  2  0
 12 14  1  0
 14 15  1  0
 15 16  1  0
 16 17  1  0
 17 18  1  0
 18 19  1  0
 19 20  2  0
 20 21  1  0
 21 22  2  0
 22 23  1  0
 23 24  1  0
 22 25  1  0
 25 26  2  0
 18 27  1  0
 11 28  1  0
 28 29  2  0
 29 30  1  0
 30 31  2  0
 31 32  1  0
 32 33  2  0
 33 34  1  0
  8  4  2  0
 34 10  1  0
 27 14  1  0
 34 30  1  0
 26 19  1  0
  3 35  1  0
  5 36  1  0
  7 37  1  0
  8 38  1  0
  9 39  1  0
 15 40  1  0
 15 41  1  0
 16 42  1  0
 16 43  1  0
 17 44  1  0
 17 45  1  0
 18 46  1  0
 20 47  1  0
 21 48  1  0
 23 49  1  0
 23 50  1  0
 24 51  1  0
 25 52  1  0
 26 53  1  0
 27 54  1  0
 27 55  1  0
 28 56  1  0
 29 57  1  0
 33 58  1  0
M  END
>  <Energy>  (1009) 
887.52050835628313

>  <compound_id>  (1009) 
4080

>  <target_id>  (1009) 
1

>  <reference_id>  (1009) 
197

>  <inspiration_ids>  (1009) 
[157, 197]

>  <energy_score>  (1009) 
770.5258268727982

>  <distance_score>  (1009) 
2.3923687968999565

>  <path>  (1009) 
/opt/xchem-fragalysis-2/maxwin/BulkDock/SCRATCH/505735/C4080-P197/C4080-P197.minimised.mol

>  <scratch_subdir>  (1009) 
/opt/xchem-fragalysis-2/maxwin/BulkDock/SCRATCH/505735/C4080-P197

>  <fragmenstein_runtime>  (1009) 
23.900821208953857

>  <fragmenstein_outcome>  (1009) 
too moved

>  <fragmenstein_mode>  (1009) 
expansion

>  <fragmenstein_error>  (1009) 


$$$$
C4080-P157
     RDKit          3D

 58 62  0  0  0  0  0  0  0  0999 V2000
   -0.6880   -4.5243   35.9605 O   0  0  0  0  0  0  0  0  0  0  0  0
    0.2112   -3.9864   35.4326 C   0  0  0  0  0  0  0  0  0  0  0  0
    1.0329   -2.8212   35.8776 N   0  0  0  0  0  0  0  0  0  0  0  0
    0.9098   -2.0108   36.9673 C   0  0  0  0  0  0  0  0  0  0  0  0
   -0.0507   -2.0360   37.9985 C   0  0  0  0  0  0  0  0  0  0  0  0
    0.1558   -1.0698   38.8994 N   0  0  0  0  0  0  0  0  0  0  0  0
    1.2481   -0.4376   38.4436 N   0  0  0  0  0  0  0  0  0  0  0  0
    1.7392   -0.9632   37.2807 C   0  0  0  0  0  0  0  0  0  0  0  0
    0.8890   -4.2878   34.1259 N   0  0  0  0  0  0  0  0  0  0  0  0
    0.5907   -5.2125   33.1477 C   0  0  0  0  0  0  0  0  0  0  0  0
    1.1234   -5.0261   31.9025 C   0  0  0  0  0  0  0  0  0  0  0  0
    1.8338   -3.7742   31.3778 C   0  0  0  0  0  0  0  0  0  0  0  0
    1.7686   -3.5595   30.2487 O   0  0  0  0  0  0  0  0  0  0  0  0
    2.4651   -2.9430   32.6212 N   0  0  0  0  0  0  0  0  0  0  0  0
    3.5282   -1.3395   32.8343 C   0  0  0  0  0  0  0  0  0  0  0  0
    5.1289   -1.3793   32.2065 C   0  0  0  0  0  0  0  0  0  0  0  0
    4.8767   -0.7447   30.8743 C   0  0  0  0  0  0  0  0  0  0  0  0
    3.4965   -1.3182   30.6819 C   0  0  0  0  0  0  0  0  0  0  0  0
    2.4934   -0.4948   29.8912 C   0  0  0  0  0  0  0  0  0  0  0  0
    1.9578    0.6900   30.4087 C   0  0  0  0  0  0  0  0  0  0  0  0
    0.7045    1.1193   29.9818 C   0  0  0  0  0  0  0  0  0  0  0  0
   -0.0043    0.3755   29.0320 C   0  0  0  0  0  0  0  0  0  0  0  0
   -1.4775    0.5602   28.8656 C   0  0  0  0  0  0  0  0  0  0  0  0
   -2.0786   -0.0577   30.0044 O   0  0  0  0  0  0  0  0  0  0  0  0
    0.6181   -0.6867   28.3829 C   0  0  0  0  0  0  0  0  0  0  0  0
    1.8782   -1.0985   28.7862 C   0  0  0  0  0  0  0  0  0  0  0  0
    2.9356   -1.6816   32.4726 C   0  0  0  0  0  0  0  0  0  0  0  0
    0.7857   -5.9836   30.8344 C   0  0  0  0  0  0  0  0  0  0  0  0
   -0.0814   -6.9857   31.0054 C   0  0  0  0  0  0  0  0  0  0  0  0
   -0.6621   -7.1644   32.2722 C   0  0  0  0  0  0  0  0  0  0  0  0
   -1.5529   -8.0315   32.6767 N   0  0  0  0  0  0  0  0  0  0  0  0
   -1.7179   -7.8411   34.0176 N   0  0  0  0  0  0  0  0  0  0  0  0
   -0.8990   -6.8893   34.3993 C   0  0  0  0  0  0  0  0  0  0  0  0
   -0.2749   -6.3248   33.3195 N   0  0  0  0  0  0  0  0  0  0  0  0
    1.7745   -2.6700   35.2238 H   0  0  0  0  0  0  0  0  0  0  0  0
   -0.8869   -2.7133   38.1278 H   0  0  0  0  0  0  0  0  0  0  0  0
    1.6031    0.3473   38.9802 H   0  0  0  0  0  0  0  0  0  0  0  0
    2.6149   -0.5461   36.8081 H   0  0  0  0  0  0  0  0  0  0  0  0
    1.5753   -3.5745   33.9326 H   0  0  0  0  0  0  0  0  0  0  0  0
    3.9222   -1.6157   33.9750 H   0  0  0  0  0  0  0  0  0  0  0  0
    3.2842   -0.1371   33.2093 H   0  0  0  0  0  0  0  0  0  0  0  0
    5.4704   -2.4194   32.1495 H   0  0  0  0  0  0  0  0  0  0  0  0
    5.7942   -0.7858   32.8403 H   0  0  0  0  0  0  0  0  0  0  0  0
    5.5925   -1.0420   30.1039 H   0  0  0  0  0  0  0  0  0  0  0  0
    4.8698    0.3473   30.9523 H   0  0  0  0  0  0  0  0  0  0  0  0
    3.6416   -2.3000   30.2136 H   0  0  0  0  0  0  0  0  0  0  0  0
    2.4322    1.2099   31.2355 H   0  0  0  0  0  0  0  0  0  0  0  0
    0.2326    1.9667   30.4727 H   0  0  0  0  0  0  0  0  0  0  0  0
   -1.7491    1.6174   28.8234 H   0  0  0  0  0  0  0  0  0  0  0  0
   -1.8539    0.0807   27.9558 H   0  0  0  0  0  0  0  0  0  0  0  0
   -1.7709   -0.9816   29.9879 H   0  0  0  0  0  0  0  0  0  0  0  0
    0.0750   -1.2706   27.6447 H   0  0  0  0  0  0  0  0  0  0  0  0
    2.2882   -2.0056   28.3470 H   0  0  0  0  0  0  0  0  0  0  0  0
    1.8658   -1.0654   33.0527 H   0  0  0  0  0  0  0  0  0  0  0  0
    1.9503   -1.5525   31.7968 H   0  0  0  0  0  0  0  0  0  0  0  0
    1.2336   -5.8321   29.8551 H   0  0  0  0  0  0  0  0  0  0  0  0
   -0.3404   -7.6699   30.2061 H   0  0  0  0  0  0  0  0  0  0  0  0
   -0.7421   -6.6113   35.4268 H   0  0  0  0  0  0  0  0  0  0  0  0
  1  2  2  0
  2  3  1  0
  3  4  1  0
  4  5  1  0
  5  6  2  0
  6  7  1  0
  7  8  1  0
  2  9  1  0
  9 10  1  0
 10 11  2  0
 11 12  1  0
 12 13  2  0
 12 14  1  0
 14 15  1  0
 15 16  1  0
 16 17  1  0
 17 18  1  0
 18 19  1  0
 19 20  2  0
 20 21  1  0
 21 22  2  0
 22 23  1  0
 23 24  1  0
 22 25  1  0
 25 26  2  0
 18 27  1  0
 11 28  1  0
 28 29  2  0
 29 30  1  0
 30 31  2  0
 31 32  1  0
 32 33  2  0
 33 34  1  0
  8  4  2  0
 34 10  1  0
 27 14  1  0
 34 30  1  0
 26 19  1  0
  3 35  1  0
  5 36  1  0
  7 37  1  0
  8 38  1  0
  9 39  1  0
 15 40  1  0
 15 41  1  0
 16 42  1  0
 16 43  1  0
 17 44  1  0
 17 45  1  0
 18 46  1  0
 20 47  1  0
 21 48  1  0
 23 49  1  0
 23 50  1  0
 24 51  1  0
 25 52  1  0
 26 53  1  0
 27 54  1  0
 27 55  1  0
 28 56  1  0
 29 57  1  0
 33 58  1  0
M  END
>  <Energy>  (1010) 
825.1965704374079

>  <compound_id>  (1010) 
4080

>  <target_id>  (1010) 
1

>  <reference_id>  (1010) 
157

>  <inspiration_ids>  (1010) 
[157, 198]

>  <energy_score>  (1010) 
709.721207963976

>  <distance_score>  (1010) 
2.599802452008686

>  <path>  (1010) 
/opt/xchem-fragalysis-2/maxwin/BulkDock/SCRATCH/505735/C4080-P157/C4080-P157.minimised.mol

>  <scratch_subdir>  (1010) 
/opt/xchem-fragalysis-2/maxwin/BulkDock/SCRATCH/505735/C4080-P157

>  <fragmenstein_runtime>  (1010) 
15.94724726676941

>  <fragmenstein_outcome>  (1010) 
too moved

>  <fragmenstein_mode>  (1010) 
expansion

>  <fragmenstein_error>  (1010) 


$$$$
C4080-P198
     RDKit          3D

 58 62  0  0  0  0  0  0  0  0999 V2000
    2.5412   -8.0418   34.7139 O   0  0  0  0  0  0  0  0  0  0  0  0
    2.8110   -6.9359   35.0070 C   0  0  0  0  0  0  0  0  0  0  0  0
    3.7072   -6.4143   36.0863 N   0  0  0  0  0  0  0  0  0  0  0  0
    4.5217   -7.0712   36.9615 C   0  0  0  0  0  0  0  0  0  0  0  0
    4.8439   -8.4383   37.0462 C   0  0  0  0  0  0  0  0  0  0  0  0
    5.7041   -8.6955   38.0356 N   0  0  0  0  0  0  0  0  0  0  0  0
    5.9171   -7.4919   38.5906 N   0  0  0  0  0  0  0  0  0  0  0  0
    5.2443   -6.4781   37.9666 C   0  0  0  0  0  0  0  0  0  0  0  0
    2.3987   -5.6414   34.3750 N   0  0  0  0  0  0  0  0  0  0  0  0
    1.6719   -5.3900   33.2325 C   0  0  0  0  0  0  0  0  0  0  0  0
    1.9795   -4.3201   32.4592 C   0  0  0  0  0  0  0  0  0  0  0  0
    3.1045   -3.4015   32.8302 C   0  0  0  0  0  0  0  0  0  0  0  0
    4.2090   -3.6403   32.6179 O   0  0  0  0  0  0  0  0  0  0  0  0
    2.3843   -2.1495   33.4608 N   0  0  0  0  0  0  0  0  0  0  0  0
    3.3715   -0.6669   34.2584 C   0  0  0  0  0  0  0  0  0  0  0  0
    4.4929    0.3234   33.3576 C   0  0  0  0  0  0  0  0  0  0  0  0
    3.6851    0.8012   32.1823 C   0  0  0  0  0  0  0  0  0  0  0  0
    2.8301   -0.4299   32.0660 C   0  0  0  0  0  0  0  0  0  0  0  0
    1.5832   -0.3464   31.2107 C   0  0  0  0  0  0  0  0  0  0  0  0
    0.2946   -0.5449   31.7194 C   0  0  0  0  0  0  0  0  0  0  0  0
   -0.7654   -0.8204   30.8643 C   0  0  0  0  0  0  0  0  0  0  0  0
   -0.5508   -0.8996   29.4871 C   0  0  0  0  0  0  0  0  0  0  0  0
   -1.5960   -1.5093   28.6157 C   0  0  0  0  0  0  0  0  0  0  0  0
   -1.5455   -2.9068   28.8672 O   0  0  0  0  0  0  0  0  0  0  0  0
    0.6971   -0.5684   28.9606 C   0  0  0  0  0  0  0  0  0  0  0  0
    1.7543   -0.2823   29.8173 C   0  0  0  0  0  0  0  0  0  0  0  0
    2.7481   -0.9399   33.8451 C   0  0  0  0  0  0  0  0  0  0  0  0
    1.3041   -4.1267   31.1796 C   0  0  0  0  0  0  0  0  0  0  0  0
    0.3570   -4.9738   30.7432 C   0  0  0  0  0  0  0  0  0  0  0  0
   -0.0337   -6.0588   31.5631 C   0  0  0  0  0  0  0  0  0  0  0  0
   -0.9513   -6.9888   31.4106 N   0  0  0  0  0  0  0  0  0  0  0  0
   -0.9888   -7.7251   32.5661 N   0  0  0  0  0  0  0  0  0  0  0  0
   -0.0796   -7.2386   33.3833 C   0  0  0  0  0  0  0  0  0  0  0  0
    0.6172   -6.2208   32.7848 N   0  0  0  0  0  0  0  0  0  0  0  0
    3.6478   -5.4155   36.1127 H   0  0  0  0  0  0  0  0  0  0  0  0
    4.5078   -9.2533   36.4212 H   0  0  0  0  0  0  0  0  0  0  0  0
    6.5405   -7.4368   39.3898 H   0  0  0  0  0  0  0  0  0  0  0  0
    5.3393   -5.4573   38.3047 H   0  0  0  0  0  0  0  0  0  0  0  0
    2.8777   -4.8832   34.8276 H   0  0  0  0  0  0  0  0  0  0  0  0
    4.2538   -1.3292   34.7833 H   0  0  0  0  0  0  0  0  0  0  0  0
    3.0844   -0.1359   35.3665 H   0  0  0  0  0  0  0  0  0  0  0  0
    5.3331   -0.3128   33.0519 H   0  0  0  0  0  0  0  0  0  0  0  0
    4.8514    1.1333   33.9995 H   0  0  0  0  0  0  0  0  0  0  0  0
    4.2901    1.0161   31.2979 H   0  0  0  0  0  0  0  0  0  0  0  0
    3.0925    1.6855   32.4385 H   0  0  0  0  0  0  0  0  0  0  0  0
    3.4575   -1.1994   31.5803 H   0  0  0  0  0  0  0  0  0  0  0  0
    0.0997   -0.6136   32.7841 H   0  0  0  0  0  0  0  0  0  0  0  0
   -1.7344   -1.0880   31.2791 H   0  0  0  0  0  0  0  0  0  0  0  0
   -2.5805   -1.1327   28.8787 H   0  0  0  0  0  0  0  0  0  0  0  0
   -1.4155   -1.3074   27.5580 H   0  0  0  0  0  0  0  0  0  0  0  0
   -2.1106   -3.3066   28.1687 H   0  0  0  0  0  0  0  0  0  0  0  0
    0.8716   -0.6214   27.8888 H   0  0  0  0  0  0  0  0  0  0  0  0
    2.7421   -0.1207   29.3906 H   0  0  0  0  0  0  0  0  0  0  0  0
    1.6787   -1.1598   34.4953 H   0  0  0  0  0  0  0  0  0  0  0  0
    1.8438    0.0010   33.7478 H   0  0  0  0  0  0  0  0  0  0  0  0
    1.5969   -3.2794   30.5662 H   0  0  0  0  0  0  0  0  0  0  0  0
   -0.1366   -4.8222   29.7893 H   0  0  0  0  0  0  0  0  0  0  0  0
    0.0979   -7.5771   34.3930 H   0  0  0  0  0  0  0  0  0  0  0  0
  1  2  2  0
  2  3  1  0
  3  4  1  0
  4  5  1  0
  5  6  2  0
  6  7  1  0
  7  8  1  0
  2  9  1  0
  9 10  1  0
 10 11  2  0
 11 12  1  0
 12 13  2  0
 12 14  1  0
 14 15  1  0
 15 16  1  0
 16 17  1  0
 17 18  1  0
 18 19  1  0
 19 20  2  0
 20 21  1  0
 21 22  2  0
 22 23  1  0
 23 24  1  0
 22 25  1  0
 25 26  2  0
 18 27  1  0
 11 28  1  0
 28 29  2  0
 29 30  1  0
 30 31  2  0
 31 32  1  0
 32 33  2  0
 33 34  1  0
  8  4  2  0
 34 10  1  0
 27 14  1  0
 34 30  1  0
 26 19  1  0
  3 35  1  0
  5 36  1  0
  7 37  1  0
  8 38  1  0
  9 39  1  0
 15 40  1  0
 15 41  1  0
 16 42  1  0
 16 43  1  0
 17 44  1  0
 17 45  1  0
 18 46  1  0
 20 47  1  0
 21 48  1  0
 23 49  1  0
 23 50  1  0
 24 51  1  0
 25 52  1  0
 26 53  1  0
 27 54  1  0
 27 55  1  0
 28 56  1  0
 29 57  1  0
 33 58  1  0
M  END
>  <Energy>  (1011) 
815.95565787526573

>  <compound_id>  (1011) 
4080

>  <target_id>  (1011) 
1

>  <reference_id>  (1011) 
198

>  <inspiration_ids>  (1011) 
[157, 198]

>  <energy_score>  (1011) 
700.4802954018394

>  <distance_score>  (1011) 
2.4274470746355887

>  <path>  (1011) 
/opt/xchem-fragalysis-2/maxwin/BulkDock/SCRATCH/505735/C4080-P198/C4080-P198.minimised.mol

>  <scratch_subdir>  (1011) 
/opt/xchem-fragalysis-2/maxwin/BulkDock/SCRATCH/505735/C4080-P198

>  <fragmenstein_runtime>  (1011) 
16.196250677108765

>  <fragmenstein_outcome>  (1011) 
too moved

>  <fragmenstein_mode>  (1011) 
expansion

>  <fragmenstein_error>  (1011) 


$$$$
C4478-P158
     RDKit          3D

 44 46  0  0  0  0  0  0  0  0999 V2000
   -0.7050   -3.2687   34.8030 O   0  0  0  0  0  0  0  0  0  0  0  0
   -0.7382   -4.9210   34.9009 S   0  0  0  0  0  6  0  0  0  0  0  0
    0.5835   -5.2131   36.0759 C   0  0  0  0  0  0  0  0  0  0  0  0
    1.6568   -6.2901   35.9321 C   0  0  0  0  0  0  0  0  0  0  0  0
    1.3925   -7.5304   36.7686 C   0  0  0  0  0  0  0  0  0  0  0  0
    1.9906   -7.5436   38.1831 C   0  0  0  0  0  0  0  0  0  0  0  0
    1.0052   -7.6862   39.3434 C   0  0  0  0  0  0  0  0  0  0  0  0
    0.4619   -6.3937   39.7264 N   0  0  0  0  0  0  0  0  0  0  0  0
   -0.6597   -5.9917   38.8905 C   0  0  0  0  0  0  0  0  0  0  0  0
   -0.4781   -4.5925   38.3171 C   0  0  0  0  0  0  0  0  0  0  0  0
    0.7152   -4.4135   37.3864 C   0  0  0  0  0  0  0  0  0  0  0  0
   -0.3767   -5.2165   33.2408 C   0  0  0  0  0  0  0  0  0  0  0  0
    1.0085   -4.7728   32.7698 C   0  0  0  0  0  0  0  0  0  0  0  0
    0.9747   -4.5986   31.2478 C   0  0  0  0  0  0  0  0  0  0  0  0
    0.3849   -5.7921   30.4855 C   0  0  0  0  0  0  0  0  0  0  0  0
   -0.4152   -6.7321   31.3180 C   0  0  0  0  0  0  0  0  0  0  0  0
   -0.9812   -7.8632   30.9636 N   0  0  0  0  0  0  0  0  0  0  0  0
   -1.5995   -8.3824   32.0767 N   0  0  0  0  0  0  0  0  0  0  0  0
   -1.4004   -7.5589   33.0842 C   0  0  0  0  0  0  0  0  0  0  0  0
   -0.6968   -6.4959   32.6389 N   0  0  0  0  0  0  0  0  0  0  0  0
   -1.9452   -5.3340   35.3381 H   0  0  0  0  0  0  0  0  0  0  0  0
    1.6577   -6.5958   34.8825 H   0  0  0  0  0  0  0  0  0  0  0  0
    2.6415   -5.8571   36.1359 H   0  0  0  0  0  0  0  0  0  0  0  0
    0.3357   -7.8111   36.7577 H   0  0  0  0  0  0  0  0  0  0  0  0
    1.9184   -8.3108   36.2182 H   0  0  0  0  0  0  0  0  0  0  0  0
    2.6543   -6.6855   38.3433 H   0  0  0  0  0  0  0  0  0  0  0  0
    2.6526   -8.4196   38.2378 H   0  0  0  0  0  0  0  0  0  0  0  0
    0.2250   -8.4268   39.1400 H   0  0  0  0  0  0  0  0  0  0  0  0
    1.5687   -8.0666   40.2044 H   0  0  0  0  0  0  0  0  0  0  0  0
    0.1377   -6.4472   40.6930 H   0  0  0  0  0  0  0  0  0  0  0  0
   -0.8808   -6.6908   38.0824 H   0  0  0  0  0  0  0  0  0  0  0  0
   -1.5499   -5.9749   39.5269 H   0  0  0  0  0  0  0  0  0  0  0  0
   -1.3978   -4.3168   37.7866 H   0  0  0  0  0  0  0  0  0  0  0  0
   -0.3811   -3.8770   39.1441 H   0  0  0  0  0  0  0  0  0  0  0  0
    1.6552   -4.6472   37.8926 H   0  0  0  0  0  0  0  0  0  0  0  0
    0.7788   -3.3579   37.0962 H   0  0  0  0  0  0  0  0  0  0  0  0
   -1.1020   -4.5460   32.7503 H   0  0  0  0  0  0  0  0  0  0  0  0
    1.7739   -5.5128   33.0262 H   0  0  0  0  0  0  0  0  0  0  0  0
    1.3087   -3.8262   33.2324 H   0  0  0  0  0  0  0  0  0  0  0  0
    0.3699   -3.7109   31.0173 H   0  0  0  0  0  0  0  0  0  0  0  0
    1.9800   -4.3757   30.8716 H   0  0  0  0  0  0  0  0  0  0  0  0
    1.2000   -6.3390   30.0108 H   0  0  0  0  0  0  0  0  0  0  0  0
   -0.2373   -5.4081   29.6721 H   0  0  0  0  0  0  0  0  0  0  0  0
   -1.7633   -7.7072   34.0927 H   0  0  0  0  0  0  0  0  0  0  0  0
  1  2  2  0
  2  3  2  0
  3  4  1  0
  4  5  1  0
  5  6  1  0
  6  7  1  0
  7  8  1  0
  8  9  1  0
  9 10  1  0
 10 11  1  0
  2 12  1  0
 12 13  1  0
 13 14  1  0
 14 15  1  0
 15 16  1  0
 16 17  2  0
 17 18  1  0
 18 19  2  0
 19 20  1  0
 11  3  1  0
 20 12  1  0
 20 16  1  0
  2 21  1  0
  4 22  1  0
  4 23  1  0
  5 24  1  0
  5 25  1  0
  6 26  1  0
  6 27  1  0
  7 28  1  0
  7 29  1  0
  8 30  1  0
  9 31  1  0
  9 32  1  0
 10 33  1  0
 10 34  1  0
 11 35  1  0
 11 36  1  0
 12 37  1  0
 13 38  1  0
 13 39  1  0
 14 40  1  0
 14 41  1  0
 15 42  1  0
 15 43  1  0
 19 44  1  0
M  END
>  <Energy>  (1012) 
29.911861511636722

>  <compound_id>  (1012) 
4478

>  <target_id>  (1012) 
1

>  <reference_id>  (1012) 
158

>  <inspiration_ids>  (1012) 
[158, 13]

>  <energy_score>  (1012) 
-256.27038376638734

>  <distance_score>  (1012) 
1.6819325424871576

>  <path>  (1012) 
/opt/xchem-fragalysis-2/maxwin/BulkDock/SCRATCH/505735/C4478-P158/C4478-P158.minimised.mol

>  <scratch_subdir>  (1012) 
/opt/xchem-fragalysis-2/maxwin/BulkDock/SCRATCH/505735/C4478-P158

>  <fragmenstein_runtime>  (1012) 
10.438209295272827

>  <fragmenstein_outcome>  (1012) 
too moved

>  <fragmenstein_mode>  (1012) 
expansion

>  <fragmenstein_error>  (1012) 


$$$$
C4478-P13
     RDKit          3D

 44 46  0  0  0  0  0  0  0  0999 V2000
   -0.4517   -3.5006   34.4690 O   0  0  0  0  0  0  0  0  0  0  0  0
   -0.7636   -5.1097   34.5509 S   0  0  0  0  0  6  0  0  0  0  0  0
   -0.0693   -5.6193   36.1452 C   0  0  0  0  0  0  0  0  0  0  0  0
    0.8723   -4.7974   37.0160 C   0  0  0  0  0  0  0  0  0  0  0  0
    0.2240   -4.2021   38.2656 C   0  0  0  0  0  0  0  0  0  0  0  0
   -0.2355   -5.1075   39.4254 C   0  0  0  0  0  0  0  0  0  0  0  0
    0.7748   -6.1060   40.0028 C   0  0  0  0  0  0  0  0  0  0  0  0
    0.6871   -7.4757   39.5131 N   0  0  0  0  0  0  0  0  0  0  0  0
    1.4632   -7.7718   38.3270 C   0  0  0  0  0  0  0  0  0  0  0  0
    0.6585   -7.9557   37.0372 C   0  0  0  0  0  0  0  0  0  0  0  0
   -0.4584   -6.9706   36.7456 C   0  0  0  0  0  0  0  0  0  0  0  0
    0.2733   -5.7812   33.3157 C   0  0  0  0  0  0  0  0  0  0  0  0
    0.9688   -4.6817   32.4986 C   0  0  0  0  0  0  0  0  0  0  0  0
    1.7049   -5.2689   31.3066 C   0  0  0  0  0  0  0  0  0  0  0  0
    0.7291   -5.9801   30.3770 C   0  0  0  0  0  0  0  0  0  0  0  0
   -0.2106   -6.8570   31.1162 C   0  0  0  0  0  0  0  0  0  0  0  0
   -0.9847   -7.8134   30.6515 N   0  0  0  0  0  0  0  0  0  0  0  0
   -1.6651   -8.3546   31.7145 N   0  0  0  0  0  0  0  0  0  0  0  0
   -1.2884   -7.7150   32.7980 C   0  0  0  0  0  0  0  0  0  0  0  0
   -0.4128   -6.7363   32.4607 N   0  0  0  0  0  0  0  0  0  0  0  0
   -2.0674   -5.3858   34.4029 H   0  0  0  0  0  0  0  0  0  0  0  0
    1.2175   -3.9637   36.3923 H   0  0  0  0  0  0  0  0  0  0  0  0
    1.7725   -5.3599   37.2498 H   0  0  0  0  0  0  0  0  0  0  0  0
    0.9412   -3.4833   38.6845 H   0  0  0  0  0  0  0  0  0  0  0  0
   -0.6446   -3.6068   37.9538 H   0  0  0  0  0  0  0  0  0  0  0  0
   -0.4967   -4.4205   40.2442 H   0  0  0  0  0  0  0  0  0  0  0  0
   -1.1874   -5.5927   39.1949 H   0  0  0  0  0  0  0  0  0  0  0  0
    1.7964   -5.7134   39.9344 H   0  0  0  0  0  0  0  0  0  0  0  0
    0.5700   -6.1722   41.0791 H   0  0  0  0  0  0  0  0  0  0  0  0
   -0.2688   -7.8165   39.4716 H   0  0  0  0  0  0  0  0  0  0  0  0
    2.2885   -7.0682   38.1865 H   0  0  0  0  0  0  0  0  0  0  0  0
    1.9709   -8.7273   38.5140 H   0  0  0  0  0  0  0  0  0  0  0  0
    0.2026   -8.9546   37.0812 H   0  0  0  0  0  0  0  0  0  0  0  0
    1.3569   -7.9810   36.1912 H   0  0  0  0  0  0  0  0  0  0  0  0
   -1.0724   -6.7860   37.6147 H   0  0  0  0  0  0  0  0  0  0  0  0
   -1.1236   -7.4415   36.0128 H   0  0  0  0  0  0  0  0  0  0  0  0
    1.0414   -6.3707   33.8322 H   0  0  0  0  0  0  0  0  0  0  0  0
    1.6761   -4.1341   33.1330 H   0  0  0  0  0  0  0  0  0  0  0  0
    0.2361   -3.9524   32.1281 H   0  0  0  0  0  0  0  0  0  0  0  0
    2.2330   -4.4815   30.7575 H   0  0  0  0  0  0  0  0  0  0  0  0
    2.4634   -5.9712   31.6678 H   0  0  0  0  0  0  0  0  0  0  0  0
    1.3132   -6.5699   29.6673 H   0  0  0  0  0  0  0  0  0  0  0  0
    0.1519   -5.2354   29.8182 H   0  0  0  0  0  0  0  0  0  0  0  0
   -1.6258   -7.9321   33.8000 H   0  0  0  0  0  0  0  0  0  0  0  0
  1  2  2  0
  2  3  2  0
  3  4  1  0
  4  5  1  0
  5  6  1  0
  6  7  1  0
  7  8  1  0
  8  9  1  0
  9 10  1  0
 10 11  1  0
  2 12  1  0
 12 13  1  0
 13 14  1  0
 14 15  1  0
 15 16  1  0
 16 17  2  0
 17 18  1  0
 18 19  2  0
 19 20  1  0
 11  3  1  0
 20 12  1  0
 20 16  1  0
  2 21  1  0
  4 22  1  0
  4 23  1  0
  5 24  1  0
  5 25  1  0
  6 26  1  0
  6 27  1  0
  7 28  1  0
  7 29  1  0
  8 30  1  0
  9 31  1  0
  9 32  1  0
 10 33  1  0
 10 34  1  0
 11 35  1  0
 11 36  1  0
 12 37  1  0
 13 38  1  0
 13 39  1  0
 14 40  1  0
 14 41  1  0
 15 42  1  0
 15 43  1  0
 19 44  1  0
M  END
>  <Energy>  (1013) 
29.736798087257128

>  <compound_id>  (1013) 
4478

>  <target_id>  (1013) 
1

>  <reference_id>  (1013) 
13

>  <inspiration_ids>  (1013) 
[158, 13]

>  <energy_score>  (1013) 
-256.44544719076714

>  <distance_score>  (1013) 
1.4093311820273706

>  <path>  (1013) 
/opt/xchem-fragalysis-2/maxwin/BulkDock/SCRATCH/505735/C4478-P13/C4478-P13.minimised.mol

>  <scratch_subdir>  (1013) 
/opt/xchem-fragalysis-2/maxwin/BulkDock/SCRATCH/505735/C4478-P13

>  <fragmenstein_runtime>  (1013) 
10.400468111038208

>  <fragmenstein_outcome>  (1013) 
too moved

>  <fragmenstein_mode>  (1013) 
expansion

>  <fragmenstein_error>  (1013) 


$$$$
C4479-P158
     RDKit          3D

 44 47  0  0  0  0  0  0  0  0999 V2000
   -1.4111   -7.7919   34.8706 N   0  0  0  0  0  0  0  0  0  0  0  0
   -1.5108   -7.7380   33.5264 C   0  0  0  0  0  0  0  0  0  0  0  0
   -2.3803   -8.4324   32.8415 N   0  0  0  0  0  0  0  0  0  0  0  0
   -2.0943   -8.3233   31.5281 N   0  0  0  0  0  0  0  0  0  0  0  0
   -1.0786   -7.5176   31.4237 C   0  0  0  0  0  0  0  0  0  0  0  0
   -0.7081   -7.0548   32.6425 N   0  0  0  0  0  0  0  0  0  0  0  0
    0.4248   -6.1399   32.8201 C   0  0  0  0  0  0  0  0  0  0  0  0
    0.4747   -5.7949   34.2120 N   0  0  0  0  0  0  0  0  0  0  0  0
    1.2957   -6.4223   35.3760 C   0  0  0  0  0  0  0  0  0  0  0  0
    2.0899   -7.2394   35.3590 O   0  0  0  0  0  0  0  0  0  0  0  0
    0.6404   -5.6813   36.5802 N   0  0  0  0  0  0  0  0  0  0  0  0
    0.7812   -5.8822   37.9253 C   0  0  0  0  0  0  0  0  0  0  0  0
    1.5027   -6.9087   38.5768 C   0  0  0  0  0  0  0  0  0  0  0  0
    1.2637   -6.9450   39.8915 N   0  0  0  0  0  0  0  0  0  0  0  0
    0.3598   -5.9676   40.0711 N   0  0  0  0  0  0  0  0  0  0  0  0
    0.0592   -5.2802   38.9249 C   0  0  0  0  0  0  0  0  0  0  0  0
    0.6435   -5.1861   31.5624 C   0  0  0  0  0  0  0  0  0  0  0  0
    0.5608   -6.0502   30.2699 C   0  0  0  0  0  0  0  0  0  0  0  0
   -0.4187   -7.1878   30.1857 C   0  0  0  0  0  0  0  0  0  0  0  0
   -0.3545   -4.0121   31.4266 C   0  0  0  0  0  0  0  0  0  0  0  0
   -0.2088   -3.3261   30.1295 N   0  0  0  0  0  0  0  0  0  0  0  0
    1.1627   -2.8686   29.8755 C   0  0  0  0  0  0  0  0  0  0  0  0
    2.2793   -3.8581   30.2763 C   0  0  0  0  0  0  0  0  0  0  0  0
    2.0212   -4.5944   31.5414 N   0  0  0  0  0  0  0  0  0  0  0  0
   -0.4758   -7.8988   35.2489 H   0  0  0  0  0  0  0  0  0  0  0  0
   -1.8769   -8.6543   35.2024 H   0  0  0  0  0  0  0  0  0  0  0  0
    1.2731   -6.8255   32.7468 H   0  0  0  0  0  0  0  0  0  0  0  0
   -0.2040   -5.1508   34.5845 H   0  0  0  0  0  0  0  0  0  0  0  0
    0.0329   -4.9575   36.2418 H   0  0  0  0  0  0  0  0  0  0  0  0
    2.1589   -7.6523   38.1419 H   0  0  0  0  0  0  0  0  0  0  0  0
   -0.0156   -5.8252   41.0031 H   0  0  0  0  0  0  0  0  0  0  0  0
   -0.6787   -4.4919   38.9301 H   0  0  0  0  0  0  0  0  0  0  0  0
    1.5439   -6.4493   30.0578 H   0  0  0  0  0  0  0  0  0  0  0  0
    0.3830   -5.4365   29.3849 H   0  0  0  0  0  0  0  0  0  0  0  0
    0.0801   -8.0922   29.8201 H   0  0  0  0  0  0  0  0  0  0  0  0
   -1.1921   -6.9697   29.4483 H   0  0  0  0  0  0  0  0  0  0  0  0
   -1.3790   -4.3781   31.5108 H   0  0  0  0  0  0  0  0  0  0  0  0
   -0.2170   -3.2933   32.2445 H   0  0  0  0  0  0  0  0  0  0  0  0
   -0.8622   -2.5473   30.0365 H   0  0  0  0  0  0  0  0  0  0  0  0
    1.3130   -1.9422   30.4443 H   0  0  0  0  0  0  0  0  0  0  0  0
    1.2660   -2.6103   28.8161 H   0  0  0  0  0  0  0  0  0  0  0  0
    2.4742   -4.5574   29.4558 H   0  0  0  0  0  0  0  0  0  0  0  0
    3.2154   -3.3003   30.4002 H   0  0  0  0  0  0  0  0  0  0  0  0
    2.0967   -3.9265   32.3125 H   0  0  0  0  0  0  0  0  0  0  0  0
  1  2  1  0
  2  3  2  0
  3  4  1  0
  4  5  2  0
  5  6  1  0
  6  7  1  0
  7  8  1  0
  8  9  1  0
  9 10  2  0
  9 11  1  0
 11 12  1  0
 12 13  1  0
 13 14  2  0
 14 15  1  0
 15 16  1  0
  7 17  1  0
 17 18  1  0
 18 19  1  0
 17 20  1  0
 20 21  1  0
 21 22  1  0
 22 23  1  0
 23 24  1  0
  6  2  1  0
 16 12  2  0
 24 17  1  0
 19  5  1  0
  1 25  1  0
  1 26  1  0
  7 27  1  0
  8 28  1  0
 11 29  1  0
 13 30  1  0
 15 31  1  0
 16 32  1  0
 18 33  1  0
 18 34  1  0
 19 35  1  0
 19 36  1  0
 20 37  1  0
 20 38  1  0
 21 39  1  0
 22 40  1  0
 22 41  1  0
 23 42  1  0
 23 43  1  0
 24 44  1  0
M  END
>  <Energy>  (1014) 
73.684581923147121

>  <compound_id>  (1014) 
4479

>  <target_id>  (1014) 
1

>  <reference_id>  (1014) 
158

>  <inspiration_ids>  (1014) 
[158, 40]

>  <energy_score>  (1014) 
-31.271503490539544

>  <distance_score>  (1014) 
2.1085091354323926

>  <path>  (1014) 
/opt/xchem-fragalysis-2/maxwin/BulkDock/SCRATCH/505735/C4479-P158/C4479-P158.minimised.mol

>  <scratch_subdir>  (1014) 
/opt/xchem-fragalysis-2/maxwin/BulkDock/SCRATCH/505735/C4479-P158

>  <fragmenstein_runtime>  (1014) 
4.78732442855835

>  <fragmenstein_outcome>  (1014) 
too moved

>  <fragmenstein_mode>  (1014) 
expansion

>  <fragmenstein_error>  (1014) 


$$$$
C4479-P40
     RDKit          3D

 44 47  0  0  0  0  0  0  0  0999 V2000
   -1.3127   -7.6711   34.4906 N   0  0  0  0  0  0  0  0  0  0  0  0
   -1.3124   -7.7711   33.1440 C   0  0  0  0  0  0  0  0  0  0  0  0
   -2.1037   -8.5854   32.4947 N   0  0  0  0  0  0  0  0  0  0  0  0
   -1.7567   -8.5756   31.2004 N   0  0  0  0  0  0  0  0  0  0  0  0
   -0.8359   -7.6704   31.0458 C   0  0  0  0  0  0  0  0  0  0  0  0
   -0.4887   -7.1399   32.2434 N   0  0  0  0  0  0  0  0  0  0  0  0
    0.6413   -6.2158   32.4001 C   0  0  0  0  0  0  0  0  0  0  0  0
    0.6744   -5.8206   33.7855 N   0  0  0  0  0  0  0  0  0  0  0  0
    1.4313   -6.4511   34.9983 C   0  0  0  0  0  0  0  0  0  0  0  0
    2.1793   -7.3119   35.0323 O   0  0  0  0  0  0  0  0  0  0  0  0
    0.7867   -5.6298   36.1593 N   0  0  0  0  0  0  0  0  0  0  0  0
    0.8816   -5.7892   37.5173 C   0  0  0  0  0  0  0  0  0  0  0  0
    1.5521   -6.8203   38.2178 C   0  0  0  0  0  0  0  0  0  0  0  0
    1.2442   -6.8426   39.5178 N   0  0  0  0  0  0  0  0  0  0  0  0
    0.3809   -5.8220   39.6530 N   0  0  0  0  0  0  0  0  0  0  0  0
    0.1451   -5.1470   38.4821 C   0  0  0  0  0  0  0  0  0  0  0  0
    0.9145   -5.3489   31.0765 C   0  0  0  0  0  0  0  0  0  0  0  0
    0.8020   -6.2782   29.8134 C   0  0  0  0  0  0  0  0  0  0  0  0
   -0.3786   -7.1937   29.7624 C   0  0  0  0  0  0  0  0  0  0  0  0
   -0.0499   -4.1536   30.8813 C   0  0  0  0  0  0  0  0  0  0  0  0
    0.1242   -3.5542   29.5460 N   0  0  0  0  0  0  0  0  0  0  0  0
    1.5102   -3.1239   29.3124 C   0  0  0  0  0  0  0  0  0  0  0  0
    2.5978   -4.1330   29.7533 C   0  0  0  0  0  0  0  0  0  0  0  0
    2.3115   -4.8230   31.0353 N   0  0  0  0  0  0  0  0  0  0  0  0
   -0.3983   -7.7805   34.9157 H   0  0  0  0  0  0  0  0  0  0  0  0
   -1.8196   -8.4980   34.8417 H   0  0  0  0  0  0  0  0  0  0  0  0
    1.4749   -6.9163   32.3954 H   0  0  0  0  0  0  0  0  0  0  0  0
    0.0239   -5.1269   34.1153 H   0  0  0  0  0  0  0  0  0  0  0  0
    0.2295   -4.8860   35.7788 H   0  0  0  0  0  0  0  0  0  0  0  0
    2.2137   -7.5818   37.8239 H   0  0  0  0  0  0  0  0  0  0  0  0
   -0.0197   -5.6473   40.5697 H   0  0  0  0  0  0  0  0  0  0  0  0
   -0.5665   -4.3355   38.4485 H   0  0  0  0  0  0  0  0  0  0  0  0
    1.7008   -6.8683   29.6645 H   0  0  0  0  0  0  0  0  0  0  0  0
    0.7782   -5.7177   28.8734 H   0  0  0  0  0  0  0  0  0  0  0  0
   -0.1673   -8.0351   29.0938 H   0  0  0  0  0  0  0  0  0  0  0  0
   -1.2386   -6.6728   29.3552 H   0  0  0  0  0  0  0  0  0  0  0  0
    0.1122   -3.3950   31.6577 H   0  0  0  0  0  0  0  0  0  0  0  0
   -1.0856   -4.4843   30.9875 H   0  0  0  0  0  0  0  0  0  0  0  0
   -0.5140   -2.7685   29.3996 H   0  0  0  0  0  0  0  0  0  0  0  0
    1.6683   -2.1892   29.8653 H   0  0  0  0  0  0  0  0  0  0  0  0
    1.6402   -2.8905   28.2504 H   0  0  0  0  0  0  0  0  0  0  0  0
    2.7779   -4.8683   28.9611 H   0  0  0  0  0  0  0  0  0  0  0  0
    3.5486   -3.5979   29.8647 H   0  0  0  0  0  0  0  0  0  0  0  0
    2.4251   -4.1395   31.7880 H   0  0  0  0  0  0  0  0  0  0  0  0
  1  2  1  0
  2  3  2  0
  3  4  1  0
  4  5  2  0
  5  6  1  0
  6  7  1  0
  7  8  1  0
  8  9  1  0
  9 10  2  0
  9 11  1  0
 11 12  1  0
 12 13  1  0
 13 14  2  0
 14 15  1  0
 15 16  1  0
  7 17  1  0
 17 18  1  0
 18 19  1  0
 17 20  1  0
 20 21  1  0
 21 22  1  0
 22 23  1  0
 23 24  1  0
  6  2  1  0
 16 12  2  0
 24 17  1  0
 19  5  1  0
  1 25  1  0
  1 26  1  0
  7 27  1  0
  8 28  1  0
 11 29  1  0
 13 30  1  0
 15 31  1  0
 16 32  1  0
 18 33  1  0
 18 34  1  0
 19 35  1  0
 19 36  1  0
 20 37  1  0
 20 38  1  0
 21 39  1  0
 22 40  1  0
 22 41  1  0
 23 42  1  0
 23 43  1  0
 24 44  1  0
M  END
>  <Energy>  (1015) 
74.494059054416908

>  <compound_id>  (1015) 
4479

>  <target_id>  (1015) 
1

>  <reference_id>  (1015) 
40

>  <inspiration_ids>  (1015) 
[158, 40]

>  <energy_score>  (1015) 
-30.46202635926545

>  <distance_score>  (1015) 
2.0908670233362034

>  <path>  (1015) 
/opt/xchem-fragalysis-2/maxwin/BulkDock/SCRATCH/505735/C4479-P40/C4479-P40.minimised.mol

>  <scratch_subdir>  (1015) 
/opt/xchem-fragalysis-2/maxwin/BulkDock/SCRATCH/505735/C4479-P40

>  <fragmenstein_runtime>  (1015) 
4.037503719329834

>  <fragmenstein_outcome>  (1015) 
too moved

>  <fragmenstein_mode>  (1015) 
expansion

>  <fragmenstein_error>  (1015) 


$$$$
C4480-P158
     RDKit          3D

 49 53  0  0  0  0  0  0  0  0999 V2000
   -0.5135   -0.8028   35.4547 C   0  0  0  0  0  0  0  0  0  0  0  0
    0.2749   -1.4586   34.5924 C   0  0  0  0  0  0  0  0  0  0  0  0
    0.1549   -2.9206   34.2745 C   0  0  0  0  0  0  0  0  0  0  0  0
    1.3946   -3.6542   34.4830 N   0  0  0  0  0  0  0  0  0  0  0  0
    2.2592   -3.6178   35.5464 C   0  0  0  0  0  0  0  0  0  0  0  0
    1.9095   -3.2946   36.9148 C   0  0  0  0  0  0  0  0  0  0  0  0
    2.8495   -2.7596   37.7857 C   0  0  0  0  0  0  0  0  0  0  0  0
    2.4984   -2.5344   39.1136 C   0  0  0  0  0  0  0  0  0  0  0  0
    1.2151   -2.8555   39.5315 C   0  0  0  0  0  0  0  0  0  0  0  0
    0.2736   -3.3805   38.7273 N   0  0  0  0  0  0  0  0  0  0  0  0
    0.6570   -3.6036   37.4482 C   0  0  0  0  0  0  0  0  0  0  0  0
    3.4280   -4.0578   35.1132 N   0  0  0  0  0  0  0  0  0  0  0  0
    3.2088   -4.7118   33.9222 N   0  0  0  0  0  0  0  0  0  0  0  0
    1.9184   -4.6357   33.6817 C   0  0  0  0  0  0  0  0  0  0  0  0
    1.0728   -5.4055   32.8546 C   0  0  0  0  0  0  0  0  0  0  0  0
    1.0775   -5.2360   31.4056 C   0  0  0  0  0  0  0  0  0  0  0  0
    0.2601   -5.9419   30.6135 C   0  0  0  0  0  0  0  0  0  0  0  0
   -0.6029   -6.9019   31.1875 C   0  0  0  0  0  0  0  0  0  0  0  0
   -1.4153   -7.7843   30.6634 N   0  0  0  0  0  0  0  0  0  0  0  0
   -2.0379   -8.4412   31.6931 N   0  0  0  0  0  0  0  0  0  0  0  0
   -1.5864   -7.9519   32.8230 C   0  0  0  0  0  0  0  0  0  0  0  0
   -0.6580   -6.9853   32.5652 N   0  0  0  0  0  0  0  0  0  0  0  0
    0.1680   -6.2561   33.4172 C   0  0  0  0  0  0  0  0  0  0  0  0
    0.0397   -6.4525   34.7674 N   0  0  0  0  0  0  0  0  0  0  0  0
    1.0373   -7.0767   35.7994 C   0  0  0  0  0  0  0  0  0  0  0  0
    2.1148   -7.4330   35.6617 O   0  0  0  0  0  0  0  0  0  0  0  0
    0.1655   -6.9743   37.0923 N   0  0  0  0  0  0  0  0  0  0  0  0
    0.4920   -7.1967   38.3947 C   0  0  0  0  0  0  0  0  0  0  0  0
    1.6337   -7.8022   38.9430 C   0  0  0  0  0  0  0  0  0  0  0  0
    1.5866   -7.8523   40.2793 N   0  0  0  0  0  0  0  0  0  0  0  0
    0.4267   -7.2414   40.5743 N   0  0  0  0  0  0  0  0  0  0  0  0
   -0.2628   -6.8196   39.4760 C   0  0  0  0  0  0  0  0  0  0  0  0
   -1.3104   -1.2962   36.0039 H   0  0  0  0  0  0  0  0  0  0  0  0
   -0.3716    0.2591   35.6380 H   0  0  0  0  0  0  0  0  0  0  0  0
    1.0548   -0.9039   34.0720 H   0  0  0  0  0  0  0  0  0  0  0  0
   -0.6340   -3.4171   34.8460 H   0  0  0  0  0  0  0  0  0  0  0  0
   -0.1073   -3.0027   33.2137 H   0  0  0  0  0  0  0  0  0  0  0  0
    3.8576   -2.5361   37.4443 H   0  0  0  0  0  0  0  0  0  0  0  0
    3.2185   -2.1252   39.8143 H   0  0  0  0  0  0  0  0  0  0  0  0
    0.9106   -2.6938   40.5618 H   0  0  0  0  0  0  0  0  0  0  0  0
   -0.1138   -4.0829   36.8585 H   0  0  0  0  0  0  0  0  0  0  0  0
    1.7481   -4.4907   30.9823 H   0  0  0  0  0  0  0  0  0  0  0  0
    0.2401   -5.7669   29.5491 H   0  0  0  0  0  0  0  0  0  0  0  0
   -1.8697   -8.2817   33.8127 H   0  0  0  0  0  0  0  0  0  0  0  0
   -0.8619   -6.3262   35.2003 H   0  0  0  0  0  0  0  0  0  0  0  0
   -0.7658   -6.6977   36.8502 H   0  0  0  0  0  0  0  0  0  0  0  0
    2.4859   -8.2239   38.4261 H   0  0  0  0  0  0  0  0  0  0  0  0
    0.1757   -7.1334   41.5509 H   0  0  0  0  0  0  0  0  0  0  0  0
   -1.1903   -6.2757   39.5744 H   0  0  0  0  0  0  0  0  0  0  0  0
  1  2  2  0
  2  3  1  0
  3  4  1  0
  4  5  1  0
  5  6  1  0
  6  7  2  0
  7  8  1  0
  8  9  2  0
  9 10  1  0
 10 11  2  0
  5 12  2  0
 12 13  1  0
 13 14  2  0
 14 15  1  0
 15 16  1  0
 16 17  2  0
 17 18  1  0
 18 19  2  0
 19 20  1  0
 20 21  2  0
 21 22  1  0
 22 23  1  0
 23 24  1  0
 24 25  1  0
 25 26  2  0
 25 27  1  0
 27 28  1  0
 28 29  1  0
 29 30  2  0
 30 31  1  0
 31 32  1  0
 14  4  1  0
 23 15  2  0
 32 28  2  0
 11  6  1  0
 22 18  1  0
  1 33  1  0
  1 34  1  0
  2 35  1  0
  3 36  1  0
  3 37  1  0
  7 38  1  0
  8 39  1  0
  9 40  1  0
 11 41  1  0
 16 42  1  0
 17 43  1  0
 21 44  1  0
 24 45  1  0
 27 46  1  0
 29 47  1  0
 31 48  1  0
 32 49  1  0
M  END
>  <Energy>  (1016) 
99.900614581375962

>  <compound_id>  (1016) 
4480

>  <target_id>  (1016) 
1

>  <reference_id>  (1016) 
158

>  <inspiration_ids>  (1016) 
[158, 56]

>  <energy_score>  (1016) 
-10.342280307296633

>  <distance_score>  (1016) 
1.2825416527840012

>  <path>  (1016) 
/opt/xchem-fragalysis-2/maxwin/BulkDock/SCRATCH/505735/C4480-P158/C4480-P158.minimised.mol

>  <scratch_subdir>  (1016) 
/opt/xchem-fragalysis-2/maxwin/BulkDock/SCRATCH/505735/C4480-P158

>  <fragmenstein_runtime>  (1016) 
3.6010091304779053

>  <fragmenstein_outcome>  (1016) 
too moved

>  <fragmenstein_mode>  (1016) 
expansion

>  <fragmenstein_error>  (1016) 


$$$$
C4480-P56
     RDKit          3D

 49 53  0  0  0  0  0  0  0  0999 V2000
   -0.8028   -1.0787   31.7357 C   0  0  0  0  0  0  0  0  0  0  0  0
   -0.7703   -2.2646   32.3588 C   0  0  0  0  0  0  0  0  0  0  0  0
   -0.3674   -2.4618   33.7953 C   0  0  0  0  0  0  0  0  0  0  0  0
    0.9279   -3.0944   33.9690 N   0  0  0  0  0  0  0  0  0  0  0  0
    1.9450   -2.7222   34.8208 C   0  0  0  0  0  0  0  0  0  0  0  0
    1.8091   -2.2893   36.2115 C   0  0  0  0  0  0  0  0  0  0  0  0
    2.9424   -2.1760   37.0165 C   0  0  0  0  0  0  0  0  0  0  0  0
    2.8135   -1.8960   38.3759 C   0  0  0  0  0  0  0  0  0  0  0  0
    1.5443   -1.7321   38.9034 C   0  0  0  0  0  0  0  0  0  0  0  0
    0.4168   -1.8369   38.1766 N   0  0  0  0  0  0  0  0  0  0  0  0
    0.5854   -2.1299   36.8615 C   0  0  0  0  0  0  0  0  0  0  0  0
    3.0696   -3.0626   34.2108 N   0  0  0  0  0  0  0  0  0  0  0  0
    2.7475   -4.0009   33.2548 N   0  0  0  0  0  0  0  0  0  0  0  0
    1.4431   -4.1920   33.3269 C   0  0  0  0  0  0  0  0  0  0  0  0
    0.6272   -5.2298   32.8086 C   0  0  0  0  0  0  0  0  0  0  0  0
    0.7214   -5.5457   31.3733 C   0  0  0  0  0  0  0  0  0  0  0  0
   -0.0523   -6.4671   30.7804 C   0  0  0  0  0  0  0  0  0  0  0  0
   -0.9367   -7.2242   31.5740 C   0  0  0  0  0  0  0  0  0  0  0  0
   -1.7659   -8.2018   31.2910 N   0  0  0  0  0  0  0  0  0  0  0  0
   -2.3122   -8.6493   32.4671 N   0  0  0  0  0  0  0  0  0  0  0  0
   -1.8013   -7.9280   33.4375 C   0  0  0  0  0  0  0  0  0  0  0  0
   -0.9846   -6.9516   32.9276 N   0  0  0  0  0  0  0  0  0  0  0  0
   -0.2615   -5.9349   33.5745 C   0  0  0  0  0  0  0  0  0  0  0  0
   -0.5162   -5.7704   34.9290 N   0  0  0  0  0  0  0  0  0  0  0  0
    0.4584   -5.4524   36.1115 C   0  0  0  0  0  0  0  0  0  0  0  0
    1.5961   -5.3626   36.1241 O   0  0  0  0  0  0  0  0  0  0  0  0
   -0.5851   -5.3008   37.2808 N   0  0  0  0  0  0  0  0  0  0  0  0
   -0.3886   -5.1121   38.6286 C   0  0  0  0  0  0  0  0  0  0  0  0
    0.8110   -4.8147   39.2971 C   0  0  0  0  0  0  0  0  0  0  0  0
    0.7269   -4.9090   40.6305 N   0  0  0  0  0  0  0  0  0  0  0  0
   -0.5760   -5.0970   40.8267 N   0  0  0  0  0  0  0  0  0  0  0  0
   -1.2819   -5.1599   39.6593 C   0  0  0  0  0  0  0  0  0  0  0  0
   -0.5111   -0.1573   32.2320 H   0  0  0  0  0  0  0  0  0  0  0  0
   -1.1065   -1.0044   30.6945 H   0  0  0  0  0  0  0  0  0  0  0  0
   -1.0772   -3.1439   31.8001 H   0  0  0  0  0  0  0  0  0  0  0  0
   -0.3228   -1.4824   34.2845 H   0  0  0  0  0  0  0  0  0  0  0  0
   -1.1102   -3.0677   34.3178 H   0  0  0  0  0  0  0  0  0  0  0  0
    3.9312   -2.3601   36.5995 H   0  0  0  0  0  0  0  0  0  0  0  0
    3.6893   -1.8346   39.0118 H   0  0  0  0  0  0  0  0  0  0  0  0
    1.4021   -1.5292   39.9609 H   0  0  0  0  0  0  0  0  0  0  0  0
   -0.3638   -2.2565   36.3606 H   0  0  0  0  0  0  0  0  0  0  0  0
    1.4574   -4.9950   30.7909 H   0  0  0  0  0  0  0  0  0  0  0  0
    0.0366   -6.6930   29.7239 H   0  0  0  0  0  0  0  0  0  0  0  0
   -1.9784   -8.0722   34.4923 H   0  0  0  0  0  0  0  0  0  0  0  0
   -1.4691   -5.6939   35.2447 H   0  0  0  0  0  0  0  0  0  0  0  0
   -1.5142   -5.3607   36.9143 H   0  0  0  0  0  0  0  0  0  0  0  0
    1.7572   -4.5552   38.8492 H   0  0  0  0  0  0  0  0  0  0  0  0
   -0.9280   -5.1252   41.7782 H   0  0  0  0  0  0  0  0  0  0  0  0
   -2.3383   -5.2430   39.7348 H   0  0  0  0  0  0  0  0  0  0  0  0
  1  2  2  0
  2  3  1  0
  3  4  1  0
  4  5  1  0
  5  6  1  0
  6  7  2  0
  7  8  1  0
  8  9  2  0
  9 10  1  0
 10 11  2  0
  5 12  2  0
 12 13  1  0
 13 14  2  0
 14 15  1  0
 15 16  1  0
 16 17  2  0
 17 18  1  0
 18 19  2  0
 19 20  1  0
 20 21  2  0
 21 22  1  0
 22 23  1  0
 23 24  1  0
 24 25  1  0
 25 26  2  0
 25 27  1  0
 27 28  1  0
 28 29  1  0
 29 30  2  0
 30 31  1  0
 31 32  1  0
 14  4  1  0
 23 15  2  0
 32 28  2  0
 11  6  1  0
 22 18  1  0
  1 33  1  0
  1 34  1  0
  2 35  1  0
  3 36  1  0
  3 37  1  0
  7 38  1  0
  8 39  1  0
  9 40  1  0
 11 41  1  0
 16 42  1  0
 17 43  1  0
 21 44  1  0
 24 45  1  0
 27 46  1  0
 29 47  1  0
 31 48  1  0
 32 49  1  0
M  END
>  <Energy>  (1017) 
107.20896373830197

>  <compound_id>  (1017) 
4480

>  <target_id>  (1017) 
1

>  <reference_id>  (1017) 
56

>  <inspiration_ids>  (1017) 
[158, 56]

>  <energy_score>  (1017) 
-3.0339311503676782

>  <distance_score>  (1017) 
1.7858733738640862

>  <path>  (1017) 
/opt/xchem-fragalysis-2/maxwin/BulkDock/SCRATCH/505735/C4480-P56/C4480-P56.minimised.mol

>  <scratch_subdir>  (1017) 
/opt/xchem-fragalysis-2/maxwin/BulkDock/SCRATCH/505735/C4480-P56

>  <fragmenstein_runtime>  (1017) 
3.769190549850464

>  <fragmenstein_outcome>  (1017) 
too moved

>  <fragmenstein_mode>  (1017) 
expansion

>  <fragmenstein_error>  (1017) 


$$$$
C4481-P158
     RDKit          3D

 54 59  0  0  0  0  0  0  0  0999 V2000
    0.0497   -7.5343   35.3927 C   0  0  0  0  0  0  0  0  0  0  0  0
   -0.7175   -6.6360   36.0060 C   0  0  0  0  0  0  0  0  0  0  0  0
   -0.4378   -5.1833   36.0785 C   0  0  0  0  0  0  0  0  0  0  0  0
   -0.2716   -4.7153   37.4282 N   0  0  0  0  0  0  0  0  0  0  0  0
   -1.0076   -3.7626   38.1025 C   0  0  0  0  0  0  0  0  0  0  0  0
   -2.0546   -2.8409   37.5969 C   0  0  0  0  0  0  0  0  0  0  0  0
   -2.2725   -2.2732   36.3457 C   0  0  0  0  0  0  0  0  0  0  0  0
   -1.4476   -2.2283   35.1159 C   0  0  0  0  0  0  0  0  0  0  0  0
   -1.9196   -1.7378   33.9378 C   0  0  0  0  0  0  0  0  0  0  0  0
   -1.0928   -1.7005   32.8315 O   0  0  0  0  0  0  0  0  0  0  0  0
   -1.6665   -2.1942   31.6206 C   0  0  0  0  0  0  0  0  0  0  0  0
   -0.7181   -3.0392   30.9153 N   0  0  0  0  0  0  0  0  0  0  0  0
   -0.4186   -4.2839   31.3396 C   0  0  0  0  0  0  0  0  0  0  0  0
   -0.6420   -4.8984   32.5804 C   0  0  0  0  0  0  0  0  0  0  0  0
   -0.2462   -6.1724   32.6018 N   0  0  0  0  0  0  0  0  0  0  0  0
    0.2039   -6.3759   31.3594 N   0  0  0  0  0  0  0  0  0  0  0  0
    0.1657   -5.2598   30.5789 C   0  0  0  0  0  0  0  0  0  0  0  0
   -3.2626   -1.1484   33.8297 C   0  0  0  0  0  0  0  0  0  0  0  0
   -4.0091   -1.1472   34.9395 C   0  0  0  0  0  0  0  0  0  0  0  0
   -5.2924   -0.7177   35.2040 N   0  0  0  0  0  0  0  0  0  0  0  0
   -5.5678   -0.8293   36.5815 N   0  0  0  0  0  0  0  0  0  0  0  0
   -4.4745   -1.3957   37.0715 C   0  0  0  0  0  0  0  0  0  0  0  0
   -4.2231   -1.7781   38.4622 C   0  0  0  0  0  0  0  0  0  0  0  0
   -3.0768   -2.4570   38.6554 C   0  0  0  0  0  0  0  0  0  0  0  0
   -3.5011   -1.6247   36.1275 N   0  0  0  0  0  0  0  0  0  0  0  0
   -0.7456   -3.9832   39.3941 N   0  0  0  0  0  0  0  0  0  0  0  0
    0.2140   -4.9408   39.5464 N   0  0  0  0  0  0  0  0  0  0  0  0
    0.5965   -5.2954   38.3445 C   0  0  0  0  0  0  0  0  0  0  0  0
    1.7525   -6.1315   38.0431 C   0  0  0  0  0  0  0  0  0  0  0  0
    2.7776   -5.6803   37.2044 C   0  0  0  0  0  0  0  0  0  0  0  0
    3.8940   -6.4825   36.9770 C   0  0  0  0  0  0  0  0  0  0  0  0
    3.9553   -7.7151   37.6049 C   0  0  0  0  0  0  0  0  0  0  0  0
    2.9922   -8.1877   38.4222 N   0  0  0  0  0  0  0  0  0  0  0  0
    1.9148   -7.3836   38.6277 C   0  0  0  0  0  0  0  0  0  0  0  0
   -0.3177   -8.5499   35.3637 H   0  0  0  0  0  0  0  0  0  0  0  0
    0.9774   -7.2823   34.8974 H   0  0  0  0  0  0  0  0  0  0  0  0
   -1.6348   -6.9847   36.4589 H   0  0  0  0  0  0  0  0  0  0  0  0
   -1.3064   -4.6952   35.6547 H   0  0  0  0  0  0  0  0  0  0  0  0
    0.4475   -4.8856   35.5083 H   0  0  0  0  0  0  0  0  0  0  0  0
   -0.4230   -2.5741   35.1754 H   0  0  0  0  0  0  0  0  0  0  0  0
   -2.5995   -2.7498   31.7829 H   0  0  0  0  0  0  0  0  0  0  0  0
   -1.9030   -1.3281   30.9923 H   0  0  0  0  0  0  0  0  0  0  0  0
   -0.6402   -2.8201   29.9239 H   0  0  0  0  0  0  0  0  0  0  0  0
   -1.0977   -4.4810   33.4601 H   0  0  0  0  0  0  0  0  0  0  0  0
    0.5157   -7.3086   31.1136 H   0  0  0  0  0  0  0  0  0  0  0  0
    0.5203   -5.2634   29.5603 H   0  0  0  0  0  0  0  0  0  0  0  0
   -3.6303   -0.7434   32.8988 H   0  0  0  0  0  0  0  0  0  0  0  0
   -5.6799    0.0529   34.6642 H   0  0  0  0  0  0  0  0  0  0  0  0
   -4.9367   -1.5376   39.2350 H   0  0  0  0  0  0  0  0  0  0  0  0
   -2.8525   -2.7871   39.6706 H   0  0  0  0  0  0  0  0  0  0  0  0
    2.7277   -4.6948   36.7492 H   0  0  0  0  0  0  0  0  0  0  0  0
    4.7053   -6.1450   36.3423 H   0  0  0  0  0  0  0  0  0  0  0  0
    4.8097   -8.3719   37.4692 H   0  0  0  0  0  0  0  0  0  0  0  0
    1.1603   -7.7931   39.2961 H   0  0  0  0  0  0  0  0  0  0  0  0
  1  2  2  0
  2  3  1  0
  3  4  1  0
  4  5  1  0
  5  6  1  0
  6  7  2  0
  7  8  1  0
  8  9  2  0
  9 10  1  0
 10 11  1  0
 11 12  1  0
 12 13  1  0
 13 14  1  0
 14 15  2  0
 15 16  1  0
 16 17  1  0
  9 18  1  0
 18 19  2  0
 19 20  1  0
 20 21  1  0
 21 22  2  0
 22 23  1  0
 23 24  2  0
 22 25  1  0
  5 26  2  0
 26 27  1  0
 27 28  2  0
 28 29  1  0
 29 30  2  0
 30 31  1  0
 31 32  2  0
 32 33  1  0
 33 34  2  0
 28  4  1  0
 34 29  1  0
 24  6  1  0
 25  7  1  0
 17 13  2  0
 25 19  1  0
  1 35  1  0
  1 36  1  0
  2 37  1  0
  3 38  1  0
  3 39  1  0
  8 40  1  0
 11 41  1  0
 11 42  1  0
 12 43  1  0
 14 44  1  0
 16 45  1  0
 17 46  1  0
 18 47  1  0
 20 48  1  0
 23 49  1  0
 24 50  1  0
 30 51  1  0
 31 52  1  0
 32 53  1  0
 34 54  1  0
M  END
>  <Energy>  (1018) 
120.96047914882105

>  <compound_id>  (1018) 
4481

>  <target_id>  (1018) 
1

>  <reference_id>  (1018) 
158

>  <inspiration_ids>  (1018) 
[158, 59]

>  <energy_score>  (1018) 
-21.89889679065689

>  <distance_score>  (1018) 
2.5512288284300766

>  <path>  (1018) 
/opt/xchem-fragalysis-2/maxwin/BulkDock/SCRATCH/505735/C4481-P158/C4481-P158.minimised.mol

>  <scratch_subdir>  (1018) 
/opt/xchem-fragalysis-2/maxwin/BulkDock/SCRATCH/505735/C4481-P158

>  <fragmenstein_runtime>  (1018) 
11.998347282409668

>  <fragmenstein_outcome>  (1018) 
too moved

>  <fragmenstein_mode>  (1018) 
expansion

>  <fragmenstein_error>  (1018) 


$$$$
C4481-P59
     RDKit          3D

 54 59  0  0  0  0  0  0  0  0999 V2000
    0.4062   -7.7259   35.5615 C   0  0  0  0  0  0  0  0  0  0  0  0
   -0.4734   -6.9004   36.1382 C   0  0  0  0  0  0  0  0  0  0  0  0
   -0.4425   -5.4068   36.0711 C   0  0  0  0  0  0  0  0  0  0  0  0
   -0.2096   -4.7976   37.3623 N   0  0  0  0  0  0  0  0  0  0  0  0
   -0.9581   -3.8359   38.0122 C   0  0  0  0  0  0  0  0  0  0  0  0
   -1.9958   -2.9167   37.4964 C   0  0  0  0  0  0  0  0  0  0  0  0
   -2.2095   -2.3695   36.2378 C   0  0  0  0  0  0  0  0  0  0  0  0
   -1.3986   -2.3900   35.0026 C   0  0  0  0  0  0  0  0  0  0  0  0
   -1.8590   -1.8900   33.8238 C   0  0  0  0  0  0  0  0  0  0  0  0
   -1.0310   -1.8768   32.7187 O   0  0  0  0  0  0  0  0  0  0  0  0
   -1.5959   -2.4048   31.5193 C   0  0  0  0  0  0  0  0  0  0  0  0
   -0.6698   -3.3228   30.8836 N   0  0  0  0  0  0  0  0  0  0  0  0
   -0.3951   -4.5483   31.3726 C   0  0  0  0  0  0  0  0  0  0  0  0
   -0.7197   -5.1306   32.6063 C   0  0  0  0  0  0  0  0  0  0  0  0
   -0.2908   -6.3894   32.7124 N   0  0  0  0  0  0  0  0  0  0  0  0
    0.3026   -6.6151   31.5320 N   0  0  0  0  0  0  0  0  0  0  0  0
    0.2865   -5.5295   30.7059 C   0  0  0  0  0  0  0  0  0  0  0  0
   -3.1842   -1.2564   33.7130 C   0  0  0  0  0  0  0  0  0  0  0  0
   -3.9187   -1.1997   34.8300 C   0  0  0  0  0  0  0  0  0  0  0  0
   -5.1816   -0.7278   35.1080 N   0  0  0  0  0  0  0  0  0  0  0  0
   -5.4489   -0.8060   36.4845 N   0  0  0  0  0  0  0  0  0  0  0  0
   -4.3636   -1.3878   36.9742 C   0  0  0  0  0  0  0  0  0  0  0  0
   -4.1071   -1.7496   38.3687 C   0  0  0  0  0  0  0  0  0  0  0  0
   -2.9903   -2.4763   38.5583 C   0  0  0  0  0  0  0  0  0  0  0  0
   -3.4094   -1.6667   36.0230 N   0  0  0  0  0  0  0  0  0  0  0  0
   -0.6956   -4.0224   39.3088 N   0  0  0  0  0  0  0  0  0  0  0  0
    0.3140   -4.9178   39.4800 N   0  0  0  0  0  0  0  0  0  0  0  0
    0.7215   -5.2658   38.2842 C   0  0  0  0  0  0  0  0  0  0  0  0
    1.9362   -6.0216   38.0059 C   0  0  0  0  0  0  0  0  0  0  0  0
    2.8533   -5.6192   37.0293 C   0  0  0  0  0  0  0  0  0  0  0  0
    4.0145   -6.3616   36.8205 C   0  0  0  0  0  0  0  0  0  0  0  0
    4.2255   -7.4855   37.6022 C   0  0  0  0  0  0  0  0  0  0  0  0
    3.3716   -7.9015   38.5597 N   0  0  0  0  0  0  0  0  0  0  0  0
    2.2553   -7.1531   38.7497 C   0  0  0  0  0  0  0  0  0  0  0  0
    0.3020   -8.7985   35.6978 H   0  0  0  0  0  0  0  0  0  0  0  0
    1.2276   -7.3623   34.9563 H   0  0  0  0  0  0  0  0  0  0  0  0
   -1.2671   -7.3429   36.7258 H   0  0  0  0  0  0  0  0  0  0  0  0
   -1.4163   -5.0768   35.7111 H   0  0  0  0  0  0  0  0  0  0  0  0
    0.3362   -5.0367   35.3981 H   0  0  0  0  0  0  0  0  0  0  0  0
   -0.3899   -2.7795   35.0591 H   0  0  0  0  0  0  0  0  0  0  0  0
   -2.5580   -2.9054   31.6819 H   0  0  0  0  0  0  0  0  0  0  0  0
   -1.7786   -1.5611   30.8443 H   0  0  0  0  0  0  0  0  0  0  0  0
   -0.4799   -3.1077   29.9069 H   0  0  0  0  0  0  0  0  0  0  0  0
   -1.2642   -4.7003   33.4281 H   0  0  0  0  0  0  0  0  0  0  0  0
    0.6966   -7.5346   31.3579 H   0  0  0  0  0  0  0  0  0  0  0  0
    0.7530   -5.5515   29.7342 H   0  0  0  0  0  0  0  0  0  0  0  0
   -3.5437   -0.8716   32.7707 H   0  0  0  0  0  0  0  0  0  0  0  0
   -5.6524   -0.0525   34.5120 H   0  0  0  0  0  0  0  0  0  0  0  0
   -4.8007   -1.4683   39.1459 H   0  0  0  0  0  0  0  0  0  0  0  0
   -2.7695   -2.7989   39.5767 H   0  0  0  0  0  0  0  0  0  0  0  0
    2.6835   -4.7199   36.4439 H   0  0  0  0  0  0  0  0  0  0  0  0
    4.7443   -6.0620   36.0770 H   0  0  0  0  0  0  0  0  0  0  0  0
    5.1170   -8.0948   37.4826 H   0  0  0  0  0  0  0  0  0  0  0  0
    1.5991   -7.5056   39.5427 H   0  0  0  0  0  0  0  0  0  0  0  0
  1  2  2  0
  2  3  1  0
  3  4  1  0
  4  5  1  0
  5  6  1  0
  6  7  2  0
  7  8  1  0
  8  9  2  0
  9 10  1  0
 10 11  1  0
 11 12  1  0
 12 13  1  0
 13 14  1  0
 14 15  2  0
 15 16  1  0
 16 17  1  0
  9 18  1  0
 18 19  2  0
 19 20  1  0
 20 21  1  0
 21 22  2  0
 22 23  1  0
 23 24  2  0
 22 25  1  0
  5 26  2  0
 26 27  1  0
 27 28  2  0
 28 29  1  0
 29 30  2  0
 30 31  1  0
 31 32  2  0
 32 33  1  0
 33 34  2  0
 28  4  1  0
 34 29  1  0
 24  6  1  0
 25  7  1  0
 17 13  2  0
 25 19  1  0
  1 35  1  0
  1 36  1  0
  2 37  1  0
  3 38  1  0
  3 39  1  0
  8 40  1  0
 11 41  1  0
 11 42  1  0
 12 43  1  0
 14 44  1  0
 16 45  1  0
 17 46  1  0
 18 47  1  0
 20 48  1  0
 23 49  1  0
 24 50  1  0
 30 51  1  0
 31 52  1  0
 32 53  1  0
 34 54  1  0
M  END
>  <Energy>  (1019) 
119.16159714796473

>  <compound_id>  (1019) 
4481

>  <target_id>  (1019) 
1

>  <reference_id>  (1019) 
59

>  <inspiration_ids>  (1019) 
[158, 59]

>  <energy_score>  (1019) 
-23.697778791509847

>  <distance_score>  (1019) 
2.540580991560538

>  <path>  (1019) 
/opt/xchem-fragalysis-2/maxwin/BulkDock/SCRATCH/505735/C4481-P59/C4481-P59.minimised.mol

>  <scratch_subdir>  (1019) 
/opt/xchem-fragalysis-2/maxwin/BulkDock/SCRATCH/505735/C4481-P59

>  <fragmenstein_runtime>  (1019) 
12.084455490112305

>  <fragmenstein_outcome>  (1019) 
too moved

>  <fragmenstein_mode>  (1019) 
expansion

>  <fragmenstein_error>  (1019) 


$$$$
C4484-P158
     RDKit          3D

 26 27  0  0  0  0  0  0  0  0999 V2000
   -0.3699   -3.8121   33.1088 O   0  0  0  0  0  0  0  0  0  0  0  0
    0.2818   -4.1058   32.1067 C   0  0  0  0  0  0  0  0  0  0  0  0
    1.3417   -3.1835   31.5599 C   0  0  0  0  0  0  0  0  0  0  0  0
    3.0070   -3.7020   32.0971 S   0  0  0  0  0  0  0  0  0  0  0  0
    2.7218   -3.7845   33.8910 C   0  0  0  0  0  0  0  0  0  0  0  0
    2.9812   -5.1126   34.4801 N   0  0  0  0  0  0  0  0  0  0  0  0
    2.1338   -6.1727   33.9121 N   0  0  0  0  0  0  0  0  0  0  0  0
    0.7442   -6.1303   34.4183 C   0  0  0  0  0  0  0  0  0  0  0  0
   -0.1552   -6.7366   33.3774 C   0  0  0  0  0  0  0  0  0  0  0  0
   -1.0910   -7.7739   33.6003 C   0  0  0  0  0  0  0  0  0  0  0  0
   -1.6344   -8.1246   32.3871 C   0  0  0  0  0  0  0  0  0  0  0  0
   -1.0554   -7.3463   31.4283 N   0  0  0  0  0  0  0  0  0  0  0  0
   -0.3204   -6.3814   32.0512 C   0  0  0  0  0  0  0  0  0  0  0  0
    0.1501   -5.2830   31.3879 N   0  0  0  0  0  0  0  0  0  0  0  0
    1.3049   -3.1783   30.4659 H   0  0  0  0  0  0  0  0  0  0  0  0
    1.1460   -2.1615   31.8993 H   0  0  0  0  0  0  0  0  0  0  0  0
    1.7513   -3.3902   34.1976 H   0  0  0  0  0  0  0  0  0  0  0  0
    3.4491   -3.0980   34.3392 H   0  0  0  0  0  0  0  0  0  0  0  0
    3.9645   -5.3102   34.2729 H   0  0  0  0  0  0  0  0  0  0  0  0
    2.4999   -7.0716   34.2263 H   0  0  0  0  0  0  0  0  0  0  0  0
    0.6995   -6.7360   35.3336 H   0  0  0  0  0  0  0  0  0  0  0  0
    0.4095   -5.1390   34.7237 H   0  0  0  0  0  0  0  0  0  0  0  0
   -1.3265   -8.2350   34.5525 H   0  0  0  0  0  0  0  0  0  0  0  0
   -2.3827   -8.8590   32.1448 H   0  0  0  0  0  0  0  0  0  0  0  0
   -1.2840   -7.3533   30.4458 H   0  0  0  0  0  0  0  0  0  0  0  0
    0.1875   -5.2427   30.3785 H   0  0  0  0  0  0  0  0  0  0  0  0
  1  2  2  0
  2  3  1  0
  3  4  1  0
  4  5  1  0
  5  6  1  0
  6  7  1  0
  7  8  1  0
  8  9  1  0
  9 10  1  0
 10 11  2  0
 11 12  1  0
 12 13  1  0
 13 14  1  0
 14  2  1  0
 13  9  2  0
  3 15  1  0
  3 16  1  0
  5 17  1  0
  5 18  1  0
  6 19  1  0
  7 20  1  0
  8 21  1  0
  8 22  1  0
 10 23  1  0
 11 24  1  0
 12 25  1  0
 14 26  1  0
M  END
>  <Energy>  (1020) 
84.085291744644508

>  <compound_id>  (1020) 
4484

>  <target_id>  (1020) 
1

>  <reference_id>  (1020) 
158

>  <inspiration_ids>  (1020) 
[158, 129]

>  <energy_score>  (1020) 
-40.87980585768031

>  <distance_score>  (1020) 
2.6250167985073274

>  <path>  (1020) 
/opt/xchem-fragalysis-2/maxwin/BulkDock/SCRATCH/505735/C4484-P158/C4484-P158.minimised.mol

>  <scratch_subdir>  (1020) 
/opt/xchem-fragalysis-2/maxwin/BulkDock/SCRATCH/505735/C4484-P158

>  <fragmenstein_runtime>  (1020) 
1.217458963394165

>  <fragmenstein_outcome>  (1020) 
too moved

>  <fragmenstein_mode>  (1020) 
expansion

>  <fragmenstein_error>  (1020) 


$$$$
C4484-P129
     RDKit          3D

 26 27  0  0  0  0  0  0  0  0999 V2000
   -0.0718   -4.4716   35.4407 O   0  0  0  0  0  0  0  0  0  0  0  0
    0.1757   -4.9436   34.3265 C   0  0  0  0  0  0  0  0  0  0  0  0
    1.5718   -4.8616   33.7574 C   0  0  0  0  0  0  0  0  0  0  0  0
    1.8760   -3.2263   33.0243 S   0  0  0  0  0  0  0  0  0  0  0  0
    3.0727   -3.6931   31.7557 C   0  0  0  0  0  0  0  0  0  0  0  0
    2.4633   -4.0212   30.4617 N   0  0  0  0  0  0  0  0  0  0  0  0
    1.7656   -5.2991   30.4539 N   0  0  0  0  0  0  0  0  0  0  0  0
    0.3196   -5.1331   30.6468 C   0  0  0  0  0  0  0  0  0  0  0  0
   -0.2225   -6.3412   31.3512 C   0  0  0  0  0  0  0  0  0  0  0  0
   -0.4071   -7.6145   30.7495 C   0  0  0  0  0  0  0  0  0  0  0  0
   -1.0923   -8.4141   31.6252 C   0  0  0  0  0  0  0  0  0  0  0  0
   -1.3204   -7.6974   32.7530 N   0  0  0  0  0  0  0  0  0  0  0  0
   -0.7393   -6.4594   32.6335 C   0  0  0  0  0  0  0  0  0  0  0  0
   -0.8392   -5.6060   33.7014 N   0  0  0  0  0  0  0  0  0  0  0  0
    2.2697   -4.9826   34.5943 H   0  0  0  0  0  0  0  0  0  0  0  0
    1.7774   -5.6968   33.0936 H   0  0  0  0  0  0  0  0  0  0  0  0
    3.7298   -4.4949   32.1100 H   0  0  0  0  0  0  0  0  0  0  0  0
    3.7187   -2.8232   31.5976 H   0  0  0  0  0  0  0  0  0  0  0  0
    1.8763   -3.2358   30.1618 H   0  0  0  0  0  0  0  0  0  0  0  0
    2.1345   -5.9484   31.1437 H   0  0  0  0  0  0  0  0  0  0  0  0
    0.0412   -4.2349   31.2050 H   0  0  0  0  0  0  0  0  0  0  0  0
   -0.1553   -5.0367   29.6643 H   0  0  0  0  0  0  0  0  0  0  0  0
   -0.0990   -7.9183   29.7606 H   0  0  0  0  0  0  0  0  0  0  0  0
   -1.4181   -9.4384   31.5435 H   0  0  0  0  0  0  0  0  0  0  0  0
   -1.7534   -8.0653   33.5919 H   0  0  0  0  0  0  0  0  0  0  0  0
   -1.6208   -5.6993   34.3458 H   0  0  0  0  0  0  0  0  0  0  0  0
  1  2  2  0
  2  3  1  0
  3  4  1  0
  4  5  1  0
  5  6  1  0
  6  7  1  0
  7  8  1  0
  8  9  1  0
  9 10  1  0
 10 11  2  0
 11 12  1  0
 12 13  1  0
 13 14  1  0
 14  2  1  0
 13  9  2  0
  3 15  1  0
  3 16  1  0
  5 17  1  0
  5 18  1  0
  6 19  1  0
  7 20  1  0
  8 21  1  0
  8 22  1  0
 10 23  1  0
 11 24  1  0
 12 25  1  0
 14 26  1  0
M  END
>  <Energy>  (1021) 
84.478671836703626

>  <compound_id>  (1021) 
4484

>  <target_id>  (1021) 
1

>  <reference_id>  (1021) 
129

>  <inspiration_ids>  (1021) 
[158, 129]

>  <energy_score>  (1021) 
-40.486425765621306

>  <distance_score>  (1021) 
1.751195116307756

>  <path>  (1021) 
/opt/xchem-fragalysis-2/maxwin/BulkDock/SCRATCH/505735/C4484-P129/C4484-P129.minimised.mol

>  <scratch_subdir>  (1021) 
/opt/xchem-fragalysis-2/maxwin/BulkDock/SCRATCH/505735/C4484-P129

>  <fragmenstein_runtime>  (1021) 
0.8429567813873291

>  <fragmenstein_outcome>  (1021) 
too moved

>  <fragmenstein_mode>  (1021) 
expansion

>  <fragmenstein_error>  (1021) 


$$$$
C2651-P158
     RDKit          3D

 51 55  0  0  0  0  0  0  0  0999 V2000
    0.5598   -7.5872   35.3298 O   0  0  0  0  0  0  0  0  0  0  0  0
    0.2363   -6.4778   35.5320 C   0  0  0  0  0  0  0  0  0  0  0  0
   -0.0968   -5.7887   36.8175 N   0  0  0  0  0  0  0  0  0  0  0  0
   -0.0300   -6.2297   38.1068 C   0  0  0  0  0  0  0  0  0  0  0  0
    0.4025   -7.4674   38.6239 C   0  0  0  0  0  0  0  0  0  0  0  0
    0.3367   -7.5041   39.9605 N   0  0  0  0  0  0  0  0  0  0  0  0
   -0.1835   -6.3102   40.2844 N   0  0  0  0  0  0  0  0  0  0  0  0
   -0.4004   -5.4986   39.2073 C   0  0  0  0  0  0  0  0  0  0  0  0
    0.0522   -5.3391   34.5795 N   0  0  0  0  0  0  0  0  0  0  0  0
    0.1209   -5.2972   33.2168 C   0  0  0  0  0  0  0  0  0  0  0  0
    0.6153   -4.1878   32.6323 C   0  0  0  0  0  0  0  0  0  0  0  0
    0.7536   -4.0937   31.1810 C   0  0  0  0  0  0  0  0  0  0  0  0
    1.3625   -2.9424   30.6548 N   0  0  0  0  0  0  0  0  0  0  0  0
    0.3891   -1.4992   30.1387 C   0  0  0  0  0  0  0  0  0  0  0  0
   -0.5772   -1.5011   28.4646 C   0  0  0  0  0  0  0  0  0  0  0  0
   -0.3614   -0.0849   28.1322 C   0  0  0  0  0  0  0  0  0  0  0  0
   -0.8959    1.0466   27.0538 S   0  0  0  0  0  0  0  0  0  0  0  0
    0.1710    2.2230   27.7623 C   0  0  0  0  0  0  0  0  0  0  0  0
    0.8969    1.7173   28.8341 C   0  0  0  0  0  0  0  0  0  0  0  0
    0.5478    0.3761   29.0113 C   0  0  0  0  0  0  0  0  0  0  0  0
    0.9658   -0.9834   29.9455 C   0  0  0  0  0  0  0  0  0  0  0  0
   -0.4808   -1.4826   31.1325 N   0  0  0  0  0  0  0  0  0  0  0  0
   -1.4070   -0.3745   31.8535 C   0  0  0  0  0  0  0  0  0  0  0  0
   -1.4821    0.7670   31.7474 O   0  0  0  0  0  0  0  0  0  0  0  0
   -2.2113   -1.2418   32.8507 C   0  0  0  0  0  0  0  0  0  0  0  0
   -1.2088   -1.4962   34.3518 S   0  0  0  0  0  0  0  0  0  0  0  0
   -3.7316   -0.4206   33.2753 Cl  0  0  0  0  0  0  0  0  0  0  0  0
    0.3707   -5.1322   30.4132 C   0  0  0  0  0  0  0  0  0  0  0  0
   -0.1935   -6.2963   30.9991 C   0  0  0  0  0  0  0  0  0  0  0  0
   -0.7104   -7.3828   30.4671 N   0  0  0  0  0  0  0  0  0  0  0  0
   -1.2217   -8.1429   31.4877 N   0  0  0  0  0  0  0  0  0  0  0  0
   -0.9703   -7.5217   32.6216 C   0  0  0  0  0  0  0  0  0  0  0  0
   -0.3005   -6.3488   32.3846 N   0  0  0  0  0  0  0  0  0  0  0  0
   -0.4138   -4.8592   36.6232 H   0  0  0  0  0  0  0  0  0  0  0  0
    0.7558   -8.3384   38.0857 H   0  0  0  0  0  0  0  0  0  0  0  0
   -0.3633   -6.1145   41.2637 H   0  0  0  0  0  0  0  0  0  0  0  0
   -0.8088   -4.5069   39.3315 H   0  0  0  0  0  0  0  0  0  0  0  0
   -0.1500   -4.5015   35.0974 H   0  0  0  0  0  0  0  0  0  0  0  0
    0.9640   -3.3515   33.2287 H   0  0  0  0  0  0  0  0  0  0  0  0
    1.9742   -2.5638   31.3861 H   0  0  0  0  0  0  0  0  0  0  0  0
   -0.2243   -2.4798   29.9046 H   0  0  0  0  0  0  0  0  0  0  0  0
   -0.0673   -2.1970   27.7900 H   0  0  0  0  0  0  0  0  0  0  0  0
   -1.6262   -1.7479   28.6624 H   0  0  0  0  0  0  0  0  0  0  0  0
    0.1888    3.2267   27.3569 H   0  0  0  0  0  0  0  0  0  0  0  0
    1.6143    2.2936   29.4039 H   0  0  0  0  0  0  0  0  0  0  0  0
    1.6660   -0.3347   30.7076 H   0  0  0  0  0  0  0  0  0  0  0  0
    1.9051   -1.5235   29.2755 H   0  0  0  0  0  0  0  0  0  0  0  0
   -2.4707   -2.2051   32.4016 H   0  0  0  0  0  0  0  0  0  0  0  0
   -1.2590   -0.2140   34.7445 H   0  0  0  0  0  0  0  0  0  0  0  0
    0.4781   -5.0860   29.3379 H   0  0  0  0  0  0  0  0  0  0  0  0
   -1.2623   -7.8703   33.6033 H   0  0  0  0  0  0  0  0  0  0  0  0
  1  2  2  0
  2  3  1  0
  3  4  1  0
  4  5  1  0
  5  6  2  0
  6  7  1  0
  7  8  1  0
  2  9  1  0
  9 10  1  0
 10 11  2  0
 11 12  1  0
 12 13  1  0
 13 14  1  0
 14 15  1  0
 15 16  1  0
 16 17  1  0
 17 18  1  0
 18 19  2  0
 19 20  1  0
 20 21  1  0
 21 22  1  0
 22 23  1  0
 23 24  2  0
 23 25  1  0
 25 26  1  0
 25 27  1  0
 12 28  2  0
 28 29  1  0
 29 30  2  0
 30 31  1  0
 31 32  2  0
 32 33  1  0
  8  4  2  0
 33 10  1  0
 22 14  1  0
 33 29  1  0
 20 16  2  0
  3 34  1  0
  5 35  1  0
  7 36  1  0
  8 37  1  0
  9 38  1  0
 11 39  1  0
 13 40  1  0
 14 41  1  0
 15 42  1  0
 15 43  1  0
 18 44  1  0
 19 45  1  0
 21 46  1  0
 21 47  1  0
 25 48  1  0
 26 49  1  0
 28 50  1  0
 32 51  1  0
M  END
>  <Energy>  (1022) 
816.45890316514374

>  <compound_id>  (1022) 
2651

>  <target_id>  (1022) 
1

>  <reference_id>  (1022) 
158

>  <inspiration_ids>  (1022) 
[158, 131]

>  <energy_score>  (1022) 
717.0843947014615

>  <distance_score>  (1022) 
1.955276089784642

>  <path>  (1022) 
/opt/xchem-fragalysis-2/maxwin/BulkDock/SCRATCH/505735/C2651-P158/C2651-P158.minimised.mol

>  <scratch_subdir>  (1022) 
/opt/xchem-fragalysis-2/maxwin/BulkDock/SCRATCH/505735/C2651-P158

>  <fragmenstein_runtime>  (1022) 
15.154400110244751

>  <fragmenstein_outcome>  (1022) 
too moved

>  <fragmenstein_mode>  (1022) 
expansion

>  <fragmenstein_error>  (1022) 


$$$$
C2651-P131
     RDKit          3D

 51 55  0  0  0  0  0  0  0  0999 V2000
    0.7169   -7.5685   35.1687 O   0  0  0  0  0  0  0  0  0  0  0  0
    0.3221   -6.4865   35.3982 C   0  0  0  0  0  0  0  0  0  0  0  0
   -0.0164   -5.8390   36.7042 N   0  0  0  0  0  0  0  0  0  0  0  0
    0.1238   -6.2904   37.9841 C   0  0  0  0  0  0  0  0  0  0  0  0
    0.6253   -7.5137   38.4732 C   0  0  0  0  0  0  0  0  0  0  0  0
    0.6098   -7.5639   39.8112 N   0  0  0  0  0  0  0  0  0  0  0  0
    0.0593   -6.3922   40.1653 N   0  0  0  0  0  0  0  0  0  0  0  0
   -0.2388   -5.5859   39.1047 C   0  0  0  0  0  0  0  0  0  0  0  0
    0.0006   -5.3578   34.4657 N   0  0  0  0  0  0  0  0  0  0  0  0
   -0.0090   -5.3036   33.0992 C   0  0  0  0  0  0  0  0  0  0  0  0
    0.2421   -4.1188   32.5055 C   0  0  0  0  0  0  0  0  0  0  0  0
    0.2558   -3.9738   31.0534 C   0  0  0  0  0  0  0  0  0  0  0  0
    0.3992   -2.6761   30.5349 N   0  0  0  0  0  0  0  0  0  0  0  0
   -1.0129   -1.6825   30.0436 C   0  0  0  0  0  0  0  0  0  0  0  0
    0.1684   -0.2041   30.4237 C   0  0  0  0  0  0  0  0  0  0  0  0
   -0.1393    0.6418   29.2694 C   0  0  0  0  0  0  0  0  0  0  0  0
    0.2117    2.1631   28.7277 S   0  0  0  0  0  0  0  0  0  0  0  0
   -0.9264    1.9416   27.4314 C   0  0  0  0  0  0  0  0  0  0  0  0
   -1.5075    0.6792   27.4424 C   0  0  0  0  0  0  0  0  0  0  0  0
   -1.0300   -0.0409   28.5436 C   0  0  0  0  0  0  0  0  0  0  0  0
   -1.1769   -1.5295   29.2641 C   0  0  0  0  0  0  0  0  0  0  0  0
   -1.7627   -1.5468   31.1404 N   0  0  0  0  0  0  0  0  0  0  0  0
   -1.0940   -1.1819   32.6168 C   0  0  0  0  0  0  0  0  0  0  0  0
   -0.0238   -0.8973   32.9430 O   0  0  0  0  0  0  0  0  0  0  0  0
   -2.2730   -1.4155   33.5788 C   0  0  0  0  0  0  0  0  0  0  0  0
   -1.6267   -1.9272   35.2076 S   0  0  0  0  0  0  0  0  0  0  0  0
   -3.1889    0.1034   33.7197 Cl  0  0  0  0  0  0  0  0  0  0  0  0
    0.1519   -5.0801   30.2913 C   0  0  0  0  0  0  0  0  0  0  0  0
   -0.1785   -6.3308   30.8803 C   0  0  0  0  0  0  0  0  0  0  0  0
   -0.5469   -7.4731   30.3418 N   0  0  0  0  0  0  0  0  0  0  0  0
   -0.9436   -8.3011   31.3593 N   0  0  0  0  0  0  0  0  0  0  0  0
   -0.7688   -7.6599   32.4967 C   0  0  0  0  0  0  0  0  0  0  0  0
   -0.2727   -6.4035   32.2660 N   0  0  0  0  0  0  0  0  0  0  0  0
   -0.4047   -4.9313   36.5339 H   0  0  0  0  0  0  0  0  0  0  0  0
    0.9908   -8.3674   37.9155 H   0  0  0  0  0  0  0  0  0  0  0  0
   -0.0844   -6.2082   41.1526 H   0  0  0  0  0  0  0  0  0  0  0  0
   -0.6868   -4.6143   39.2509 H   0  0  0  0  0  0  0  0  0  0  0  0
   -0.2355   -4.5399   35.0017 H   0  0  0  0  0  0  0  0  0  0  0  0
    0.5295   -3.2535   33.0910 H   0  0  0  0  0  0  0  0  0  0  0  0
    0.9906   -2.7126   29.6980 H   0  0  0  0  0  0  0  0  0  0  0  0
   -1.4607   -2.8298   30.3304 H   0  0  0  0  0  0  0  0  0  0  0  0
   -0.1298    0.4037   31.2773 H   0  0  0  0  0  0  0  0  0  0  0  0
    1.2178   -0.5133   30.4301 H   0  0  0  0  0  0  0  0  0  0  0  0
   -1.1027    2.7502   26.7344 H   0  0  0  0  0  0  0  0  0  0  0  0
   -2.2208    0.3367   26.7032 H   0  0  0  0  0  0  0  0  0  0  0  0
   -0.7627   -2.4416   28.4929 H   0  0  0  0  0  0  0  0  0  0  0  0
   -2.3062   -1.6469   28.7772 H   0  0  0  0  0  0  0  0  0  0  0  0
   -2.9421   -2.1936   33.2030 H   0  0  0  0  0  0  0  0  0  0  0  0
   -0.7191   -0.9400   35.2865 H   0  0  0  0  0  0  0  0  0  0  0  0
    0.1803   -5.0113   29.2138 H   0  0  0  0  0  0  0  0  0  0  0  0
   -1.0114   -8.0482   33.4762 H   0  0  0  0  0  0  0  0  0  0  0  0
  1  2  2  0
  2  3  1  0
  3  4  1  0
  4  5  1  0
  5  6  2  0
  6  7  1  0
  7  8  1  0
  2  9  1  0
  9 10  1  0
 10 11  2  0
 11 12  1  0
 12 13  1  0
 13 14  1  0
 14 15  1  0
 15 16  1  0
 16 17  1  0
 17 18  1  0
 18 19  2  0
 19 20  1  0
 20 21  1  0
 21 22  1  0
 22 23  1  0
 23 24  2  0
 23 25  1  0
 25 26  1  0
 25 27  1  0
 12 28  2  0
 28 29  1  0
 29 30  2  0
 30 31  1  0
 31 32  2  0
 32 33  1  0
  8  4  2  0
 33 10  1  0
 22 14  1  0
 33 29  1  0
 20 16  2  0
  3 34  1  0
  5 35  1  0
  7 36  1  0
  8 37  1  0
  9 38  1  0
 11 39  1  0
 13 40  1  0
 14 41  1  0
 15 42  1  0
 15 43  1  0
 18 44  1  0
 19 45  1  0
 21 46  1  0
 21 47  1  0
 25 48  1  0
 26 49  1  0
 28 50  1  0
 32 51  1  0
M  END
>  <Energy>  (1023) 
847.46699357358591

>  <compound_id>  (1023) 
2651

>  <target_id>  (1023) 
1

>  <reference_id>  (1023) 
131

>  <inspiration_ids>  (1023) 
[158, 131]

>  <energy_score>  (1023) 
748.0924851099064

>  <distance_score>  (1023) 
2.0810396081805047

>  <path>  (1023) 
/opt/xchem-fragalysis-2/maxwin/BulkDock/SCRATCH/505735/C2651-P131/C2651-P131.minimised.mol

>  <scratch_subdir>  (1023) 
/opt/xchem-fragalysis-2/maxwin/BulkDock/SCRATCH/505735/C2651-P131

>  <fragmenstein_runtime>  (1023) 
11.992672681808472

>  <fragmenstein_outcome>  (1023) 
too moved

>  <fragmenstein_mode>  (1023) 
expansion

>  <fragmenstein_error>  (1023) 


$$$$
C4488-P158
     RDKit          3D

 44 47  0  0  0  0  0  0  0  0999 V2000
    2.2505   -6.3467   36.1091 O   0  0  0  0  0  0  0  0  0  0  0  0
    1.1269   -6.5271   36.2108 C   0  0  0  0  0  0  0  0  0  0  0  0
    0.2583   -6.7838   37.4809 N   0  0  0  0  0  0  0  0  0  0  0  0
    0.6249   -6.9477   38.7778 C   0  0  0  0  0  0  0  0  0  0  0  0
    1.8827   -7.2646   39.3099 C   0  0  0  0  0  0  0  0  0  0  0  0
    1.8358   -7.4382   40.6346 N   0  0  0  0  0  0  0  0  0  0  0  0
    0.5562   -7.1709   40.9437 N   0  0  0  0  0  0  0  0  0  0  0  0
   -0.2101   -6.8583   39.8602 C   0  0  0  0  0  0  0  0  0  0  0  0
    0.0145   -6.5941   35.1195 N   0  0  0  0  0  0  0  0  0  0  0  0
    0.1075   -6.5448   33.7607 C   0  0  0  0  0  0  0  0  0  0  0  0
    1.0451   -5.8150   33.1209 C   0  0  0  0  0  0  0  0  0  0  0  0
    0.9717   -5.7044   31.6611 C   0  0  0  0  0  0  0  0  0  0  0  0
    1.4679   -4.4688   30.9810 C   0  0  0  0  0  0  0  0  0  0  0  0
    0.2404   -3.5722   30.7276 C   0  0  0  0  0  0  0  0  0  0  0  0
   -0.4673   -3.2251   31.9757 N   0  0  0  0  0  0  0  0  0  0  0  0
    0.1720   -1.9282   32.8247 S   0  0  0  0  0  0  0  0  0  0  0  0
    1.5912   -2.1514   32.9843 O   0  0  0  0  0  0  0  0  0  0  0  0
   -0.6740   -1.6763   33.9597 O   0  0  0  0  0  0  0  0  0  0  0  0
    0.0556   -0.5467   31.7605 C   0  0  0  0  0  0  0  0  0  0  0  0
    0.9415    0.4405   31.3906 C   0  0  0  0  0  0  0  0  0  0  0  0
    0.4188    1.1879   30.3044 C   0  0  0  0  0  0  0  0  0  0  0  0
   -0.7923    0.8536   29.8748 N   0  0  0  0  0  0  0  0  0  0  0  0
   -1.3445   -0.4023   30.7990 S   0  0  0  0  0  0  0  0  0  0  0  0
    0.1864   -6.5171   30.9347 C   0  0  0  0  0  0  0  0  0  0  0  0
   -0.7254   -7.3408   31.5993 C   0  0  0  0  0  0  0  0  0  0  0  0
   -1.6462   -8.1344   31.1333 N   0  0  0  0  0  0  0  0  0  0  0  0
   -2.3541   -8.5828   32.2006 N   0  0  0  0  0  0  0  0  0  0  0  0
   -1.8389   -8.0758   33.2961 C   0  0  0  0  0  0  0  0  0  0  0  0
   -0.7953   -7.2665   32.9763 N   0  0  0  0  0  0  0  0  0  0  0  0
   -0.7107   -6.8215   37.2255 H   0  0  0  0  0  0  0  0  0  0  0  0
    2.8205   -7.4104   38.7894 H   0  0  0  0  0  0  0  0  0  0  0  0
    0.2796   -7.2106   41.9191 H   0  0  0  0  0  0  0  0  0  0  0  0
   -1.2471   -6.5878   39.9729 H   0  0  0  0  0  0  0  0  0  0  0  0
   -0.8616   -6.8516   35.5440 H   0  0  0  0  0  0  0  0  0  0  0  0
    1.7833   -5.2214   33.6569 H   0  0  0  0  0  0  0  0  0  0  0  0
    1.9352   -4.7202   30.0203 H   0  0  0  0  0  0  0  0  0  0  0  0
    2.2415   -3.9727   31.5717 H   0  0  0  0  0  0  0  0  0  0  0  0
   -0.4815   -4.0570   30.0605 H   0  0  0  0  0  0  0  0  0  0  0  0
    0.5679   -2.6793   30.1870 H   0  0  0  0  0  0  0  0  0  0  0  0
   -0.7330   -3.9812   32.6034 H   0  0  0  0  0  0  0  0  0  0  0  0
    1.9236    0.5679   31.8272 H   0  0  0  0  0  0  0  0  0  0  0  0
    0.9201    1.9987   29.7887 H   0  0  0  0  0  0  0  0  0  0  0  0
    0.0602   -6.3969   29.8682 H   0  0  0  0  0  0  0  0  0  0  0  0
   -2.1736   -8.2851   34.3013 H   0  0  0  0  0  0  0  0  0  0  0  0
  1  2  2  0
  2  3  1  0
  3  4  1  0
  4  5  1  0
  5  6  2  0
  6  7  1  0
  7  8  1  0
  2  9  1  0
  9 10  1  0
 10 11  2  0
 11 12  1  0
 12 13  1  0
 13 14  1  0
 14 15  1  0
 15 16  1  0
 16 17  2  0
 16 18  2  0
 16 19  1  0
 19 20  2  0
 20 21  1  0
 21 22  2  0
 22 23  1  0
 12 24  2  0
 24 25  1  0
 25 26  2  0
 26 27  1  0
 27 28  2  0
 28 29  1  0
  8  4  2  0
 29 10  1  0
 23 19  1  0
 29 25  1  0
  3 30  1  0
  5 31  1  0
  7 32  1  0
  8 33  1  0
  9 34  1  0
 11 35  1  0
 13 36  1  0
 13 37  1  0
 14 38  1  0
 14 39  1  0
 15 40  1  0
 20 41  1  0
 21 42  1  0
 24 43  1  0
 28 44  1  0
M  END
>  <Energy>  (1024) 
-22.448745557313618

>  <compound_id>  (1024) 
4488

>  <target_id>  (1024) 
1

>  <reference_id>  (1024) 
158

>  <inspiration_ids>  (1024) 
[158, 134]

>  <energy_score>  (1024) 
-68.49927349004551

>  <distance_score>  (1024) 
1.5686875891209175

>  <path>  (1024) 
/opt/xchem-fragalysis-2/maxwin/BulkDock/SCRATCH/505735/C4488-P158/C4488-P158.minimised.mol

>  <scratch_subdir>  (1024) 
/opt/xchem-fragalysis-2/maxwin/BulkDock/SCRATCH/505735/C4488-P158

>  <fragmenstein_runtime>  (1024) 
7.286281108856201

>  <fragmenstein_outcome>  (1024) 
too moved

>  <fragmenstein_mode>  (1024) 
expansion

>  <fragmenstein_error>  (1024) 


$$$$
C4488-P134
     RDKit          3D

 44 47  0  0  0  0  0  0  0  0999 V2000
   -0.7767   -7.4283   36.1322 O   0  0  0  0  0  0  0  0  0  0  0  0
    0.1027   -6.7057   36.0585 C   0  0  0  0  0  0  0  0  0  0  0  0
    1.0804   -6.1932   37.1612 N   0  0  0  0  0  0  0  0  0  0  0  0
    1.1920   -6.5447   38.4740 C   0  0  0  0  0  0  0  0  0  0  0  0
    2.0001   -6.0352   39.4975 C   0  0  0  0  0  0  0  0  0  0  0  0
    1.8246   -6.6768   40.6590 N   0  0  0  0  0  0  0  0  0  0  0  0
    0.8886   -7.5951   40.3737 N   0  0  0  0  0  0  0  0  0  0  0  0
    0.5105   -7.5716   39.0700 C   0  0  0  0  0  0  0  0  0  0  0  0
    0.7436   -6.0172   34.8044 N   0  0  0  0  0  0  0  0  0  0  0  0
    0.4706   -6.1763   33.4623 C   0  0  0  0  0  0  0  0  0  0  0  0
    1.1811   -5.4300   32.5861 C   0  0  0  0  0  0  0  0  0  0  0  0
    0.8188   -5.4363   31.1713 C   0  0  0  0  0  0  0  0  0  0  0  0
    0.8089   -4.1638   30.3775 C   0  0  0  0  0  0  0  0  0  0  0  0
   -0.5172   -3.4388   30.7055 C   0  0  0  0  0  0  0  0  0  0  0  0
   -0.6022   -2.9383   32.0819 N   0  0  0  0  0  0  0  0  0  0  0  0
    0.5290   -1.8409   32.6418 S   0  0  0  0  0  0  0  0  0  0  0  0
    1.8626   -2.3698   32.4712 O   0  0  0  0  0  0  0  0  0  0  0  0
    0.0892   -1.4552   33.9613 O   0  0  0  0  0  0  0  0  0  0  0  0
    0.4561   -0.3967   31.6567 C   0  0  0  0  0  0  0  0  0  0  0  0
    0.1333    0.9186   31.9031 C   0  0  0  0  0  0  0  0  0  0  0  0
    0.3555    1.7073   30.7381 C   0  0  0  0  0  0  0  0  0  0  0  0
    0.7355    1.0698   29.6382 N   0  0  0  0  0  0  0  0  0  0  0  0
    0.9496   -0.5180   30.0202 S   0  0  0  0  0  0  0  0  0  0  0  0
    0.1065   -6.4435   30.6515 C   0  0  0  0  0  0  0  0  0  0  0  0
   -0.5802   -7.2868   31.5272 C   0  0  0  0  0  0  0  0  0  0  0  0
   -1.4896   -8.1769   31.2431 N   0  0  0  0  0  0  0  0  0  0  0  0
   -2.0680   -8.5001   32.4151 N   0  0  0  0  0  0  0  0  0  0  0  0
   -1.4844   -7.8359   33.3862 C   0  0  0  0  0  0  0  0  0  0  0  0
   -0.4846   -7.0573   32.9006 N   0  0  0  0  0  0  0  0  0  0  0  0
    1.6927   -5.4998   36.7741 H   0  0  0  0  0  0  0  0  0  0  0  0
    2.7125   -5.2223   39.4608 H   0  0  0  0  0  0  0  0  0  0  0  0
    0.5856   -8.2310   41.1041 H   0  0  0  0  0  0  0  0  0  0  0  0
   -0.1554   -8.3181   38.6733 H   0  0  0  0  0  0  0  0  0  0  0  0
    1.5607   -5.4995   35.0820 H   0  0  0  0  0  0  0  0  0  0  0  0
    1.9659   -4.7505   32.9028 H   0  0  0  0  0  0  0  0  0  0  0  0
    0.8176   -4.3859   29.3020 H   0  0  0  0  0  0  0  0  0  0  0  0
    1.7108   -3.5757   30.5437 H   0  0  0  0  0  0  0  0  0  0  0  0
   -1.3624   -4.1150   30.5772 H   0  0  0  0  0  0  0  0  0  0  0  0
   -0.7096   -2.6365   29.9922 H   0  0  0  0  0  0  0  0  0  0  0  0
   -0.8821   -3.6030   32.8056 H   0  0  0  0  0  0  0  0  0  0  0  0
   -0.1779    1.2945   32.8684 H   0  0  0  0  0  0  0  0  0  0  0  0
    0.2352    2.7825   30.6603 H   0  0  0  0  0  0  0  0  0  0  0  0
   -0.2638   -6.4200   29.6404 H   0  0  0  0  0  0  0  0  0  0  0  0
   -1.7950   -7.9166   34.4096 H   0  0  0  0  0  0  0  0  0  0  0  0
  1  2  2  0
  2  3  1  0
  3  4  1  0
  4  5  1  0
  5  6  2  0
  6  7  1  0
  7  8  1  0
  2  9  1  0
  9 10  1  0
 10 11  2  0
 11 12  1  0
 12 13  1  0
 13 14  1  0
 14 15  1  0
 15 16  1  0
 16 17  2  0
 16 18  2  0
 16 19  1  0
 19 20  2  0
 20 21  1  0
 21 22  2  0
 22 23  1  0
 12 24  2  0
 24 25  1  0
 25 26  2  0
 26 27  1  0
 27 28  2  0
 28 29  1  0
  8  4  2  0
 29 10  1  0
 23 19  1  0
 29 25  1  0
  3 30  1  0
  5 31  1  0
  7 32  1  0
  8 33  1  0
  9 34  1  0
 11 35  1  0
 13 36  1  0
 13 37  1  0
 14 38  1  0
 14 39  1  0
 15 40  1  0
 20 41  1  0
 21 42  1  0
 24 43  1  0
 28 44  1  0
M  END
>  <Energy>  (1025) 
-16.183544409521581

>  <compound_id>  (1025) 
4488

>  <target_id>  (1025) 
1

>  <reference_id>  (1025) 
134

>  <inspiration_ids>  (1025) 
[158, 134]

>  <energy_score>  (1025) 
-62.234072342252134

>  <distance_score>  (1025) 
1.6126638634963166

>  <path>  (1025) 
/opt/xchem-fragalysis-2/maxwin/BulkDock/SCRATCH/505735/C4488-P134/C4488-P134.minimised.mol

>  <scratch_subdir>  (1025) 
/opt/xchem-fragalysis-2/maxwin/BulkDock/SCRATCH/505735/C4488-P134

>  <fragmenstein_runtime>  (1025) 
4.64015007019043

>  <fragmenstein_outcome>  (1025) 
too moved

>  <fragmenstein_mode>  (1025) 
expansion

>  <fragmenstein_error>  (1025) 


$$$$
C4489-P158
     RDKit          3D

 49 52  0  0  0  0  0  0  0  0999 V2000
   -0.5273   -8.0246   36.1834 O   0  0  0  0  0  0  0  0  0  0  0  0
   -0.0984   -6.9788   36.3049 C   0  0  0  0  0  0  0  0  0  0  0  0
    0.2612   -6.1826   37.5947 N   0  0  0  0  0  0  0  0  0  0  0  0
    0.2397   -6.5648   38.8980 C   0  0  0  0  0  0  0  0  0  0  0  0
    0.1699   -7.8637   39.4234 C   0  0  0  0  0  0  0  0  0  0  0  0
    0.2131   -7.8745   40.7579 N   0  0  0  0  0  0  0  0  0  0  0  0
    0.2679   -6.5722   41.0759 N   0  0  0  0  0  0  0  0  0  0  0  0
    0.3328   -5.7446   39.9897 C   0  0  0  0  0  0  0  0  0  0  0  0
    0.3940   -5.9696   35.2385 N   0  0  0  0  0  0  0  0  0  0  0  0
    0.3583   -6.0358   33.8727 C   0  0  0  0  0  0  0  0  0  0  0  0
    1.2185   -5.2052   33.2569 C   0  0  0  0  0  0  0  0  0  0  0  0
    1.1698   -4.9855   31.8226 C   0  0  0  0  0  0  0  0  0  0  0  0
    1.8922   -3.7546   31.3183 C   0  0  0  0  0  0  0  0  0  0  0  0
    1.7225   -2.5185   32.2301 C   0  0  0  0  0  0  0  0  0  0  0  0
    0.3280   -2.3658   32.6413 N   0  0  0  0  0  0  0  0  0  0  0  0
   -0.4521   -0.9092   32.5017 S   0  0  0  0  0  0  0  0  0  0  0  0
    0.3880    0.0906   33.1218 O   0  0  0  0  0  0  0  0  0  0  0  0
   -1.8222   -1.1216   32.9051 O   0  0  0  0  0  0  0  0  0  0  0  0
   -0.4249   -0.6878   30.7542 C   0  0  0  0  0  0  0  0  0  0  0  0
    0.2864    0.3818   30.2082 C   0  0  0  0  0  0  0  0  0  0  0  0
    0.2849    0.5567   28.8304 C   0  0  0  0  0  0  0  0  0  0  0  0
   -0.4137   -0.3388   28.0292 C   0  0  0  0  0  0  0  0  0  0  0  0
   -0.4859   -0.0706   26.7004 O   0  0  0  0  0  0  0  0  0  0  0  0
   -1.0730   -1.4383   28.5661 C   0  0  0  0  0  0  0  0  0  0  0  0
   -1.0952   -1.6094   29.9443 C   0  0  0  0  0  0  0  0  0  0  0  0
    0.3886   -5.7655   31.0513 C   0  0  0  0  0  0  0  0  0  0  0  0
   -0.4203   -6.7651   31.6565 C   0  0  0  0  0  0  0  0  0  0  0  0
   -1.2317   -7.6494   31.1240 N   0  0  0  0  0  0  0  0  0  0  0  0
   -1.8694   -8.2839   32.1519 N   0  0  0  0  0  0  0  0  0  0  0  0
   -1.4305   -7.7798   33.2884 C   0  0  0  0  0  0  0  0  0  0  0  0
   -0.4635   -6.8407   33.0553 N   0  0  0  0  0  0  0  0  0  0  0  0
    0.5434   -5.2529   37.3501 H   0  0  0  0  0  0  0  0  0  0  0  0
    0.1043   -8.7948   38.8833 H   0  0  0  0  0  0  0  0  0  0  0  0
    0.2751   -6.3192   42.0584 H   0  0  0  0  0  0  0  0  0  0  0  0
    0.4082   -4.6741   40.1066 H   0  0  0  0  0  0  0  0  0  0  0  0
    0.7902   -5.1646   35.6922 H   0  0  0  0  0  0  0  0  0  0  0  0
    1.9271   -4.6217   33.8384 H   0  0  0  0  0  0  0  0  0  0  0  0
    1.5240   -3.5004   30.3160 H   0  0  0  0  0  0  0  0  0  0  0  0
    2.9615   -3.9743   31.2142 H   0  0  0  0  0  0  0  0  0  0  0  0
    2.3442   -2.6071   33.1274 H   0  0  0  0  0  0  0  0  0  0  0  0
    2.0896   -1.6356   31.6968 H   0  0  0  0  0  0  0  0  0  0  0  0
   -0.2344   -3.1256   33.0160 H   0  0  0  0  0  0  0  0  0  0  0  0
    0.8126    1.0930   30.8398 H   0  0  0  0  0  0  0  0  0  0  0  0
    0.7897    1.4063   28.3788 H   0  0  0  0  0  0  0  0  0  0  0  0
   -0.8880   -0.8428   26.2444 H   0  0  0  0  0  0  0  0  0  0  0  0
   -1.6160   -2.1272   27.9257 H   0  0  0  0  0  0  0  0  0  0  0  0
   -1.6484   -2.4389   30.3753 H   0  0  0  0  0  0  0  0  0  0  0  0
    0.2866   -5.6002   29.9841 H   0  0  0  0  0  0  0  0  0  0  0  0
   -1.7740   -8.0821   34.2661 H   0  0  0  0  0  0  0  0  0  0  0  0
  1  2  2  0
  2  3  1  0
  3  4  1  0
  4  5  1  0
  5  6  2  0
  6  7  1  0
  7  8  1  0
  2  9  1  0
  9 10  1  0
 10 11  2  0
 11 12  1  0
 12 13  1  0
 13 14  1  0
 14 15  1  0
 15 16  1  0
 16 17  2  0
 16 18  2  0
 16 19  1  0
 19 20  2  0
 20 21  1  0
 21 22  2  0
 22 23  1  0
 22 24  1  0
 24 25  2  0
 12 26  2  0
 26 27  1  0
 27 28  2  0
 28 29  1  0
 29 30  2  0
 30 31  1  0
  8  4  2  0
 31 10  1  0
 25 19  1  0
 31 27  1  0
  3 32  1  0
  5 33  1  0
  7 34  1  0
  8 35  1  0
  9 36  1  0
 11 37  1  0
 13 38  1  0
 13 39  1  0
 14 40  1  0
 14 41  1  0
 15 42  1  0
 20 43  1  0
 21 44  1  0
 23 45  1  0
 24 46  1  0
 25 47  1  0
 26 48  1  0
 30 49  1  0
M  END
>  <Energy>  (1026) 
-6.6600342552328495

>  <compound_id>  (1026) 
4489

>  <target_id>  (1026) 
1

>  <reference_id>  (1026) 
158

>  <inspiration_ids>  (1026) 
[158, 135]

>  <energy_score>  (1026) 
-37.56767379003771

>  <distance_score>  (1026) 
0.8216568220036706

>  <path>  (1026) 
/opt/xchem-fragalysis-2/maxwin/BulkDock/SCRATCH/505735/C4489-P158/C4489-P158.minimised.mol

>  <scratch_subdir>  (1026) 
/opt/xchem-fragalysis-2/maxwin/BulkDock/SCRATCH/505735/C4489-P158

>  <fragmenstein_runtime>  (1026) 
7.311181545257568

>  <fragmenstein_outcome>  (1026) 
acceptable

>  <fragmenstein_mode>  (1026) 
expansion

>  <fragmenstein_error>  (1026) 


$$$$
C4489-P135
     RDKit          3D

 49 52  0  0  0  0  0  0  0  0999 V2000
    2.4544   -6.8958   36.0635 O   0  0  0  0  0  0  0  0  0  0  0  0
    1.3132   -6.8935   36.1189 C   0  0  0  0  0  0  0  0  0  0  0  0
    0.3647   -6.9071   37.3573 N   0  0  0  0  0  0  0  0  0  0  0  0
    0.6490   -7.0158   38.6822 C   0  0  0  0  0  0  0  0  0  0  0  0
    1.8300   -7.4626   39.2944 C   0  0  0  0  0  0  0  0  0  0  0  0
    1.7305   -7.4722   40.6261 N   0  0  0  0  0  0  0  0  0  0  0  0
    0.4884   -7.0206   40.8566 N   0  0  0  0  0  0  0  0  0  0  0  0
   -0.1891   -6.6929   39.7175 C   0  0  0  0  0  0  0  0  0  0  0  0
    0.2477   -6.7742   34.9813 N   0  0  0  0  0  0  0  0  0  0  0  0
    0.4044   -6.5525   33.6461 C   0  0  0  0  0  0  0  0  0  0  0  0
    1.4189   -5.7889   33.2007 C   0  0  0  0  0  0  0  0  0  0  0  0
    1.4175   -5.3306   31.8110 C   0  0  0  0  0  0  0  0  0  0  0  0
    2.2407   -4.0966   31.5114 C   0  0  0  0  0  0  0  0  0  0  0  0
    1.9156   -2.9001   32.4355 C   0  0  0  0  0  0  0  0  0  0  0  0
    0.4679   -2.7926   32.6472 N   0  0  0  0  0  0  0  0  0  0  0  0
   -0.2640   -1.2955   32.6678 S   0  0  0  0  0  0  0  0  0  0  0  0
    0.6436   -0.3677   33.3033 O   0  0  0  0  0  0  0  0  0  0  0  0
   -1.6096   -1.5054   33.1531 O   0  0  0  0  0  0  0  0  0  0  0  0
   -0.3689   -0.9359   30.9450 C   0  0  0  0  0  0  0  0  0  0  0  0
    0.2962    0.1768   30.4273 C   0  0  0  0  0  0  0  0  0  0  0  0
    0.1092    0.5104   29.0900 C   0  0  0  0  0  0  0  0  0  0  0  0
   -0.7264   -0.2722   28.3000 C   0  0  0  0  0  0  0  0  0  0  0  0
   -0.9940    0.1542   27.0376 O   0  0  0  0  0  0  0  0  0  0  0  0
   -1.3345   -1.4196   28.7952 C   0  0  0  0  0  0  0  0  0  0  0  0
   -1.1647   -1.7515   30.1338 C   0  0  0  0  0  0  0  0  0  0  0  0
    0.5801   -5.8835   30.9061 C   0  0  0  0  0  0  0  0  0  0  0  0
   -0.3626   -6.8527   31.3355 C   0  0  0  0  0  0  0  0  0  0  0  0
   -1.2290   -7.6041   30.6931 N   0  0  0  0  0  0  0  0  0  0  0  0
   -1.9518   -8.2958   31.6307 N   0  0  0  0  0  0  0  0  0  0  0  0
   -1.5161   -7.9452   32.8187 C   0  0  0  0  0  0  0  0  0  0  0  0
   -0.4807   -7.0694   32.6995 N   0  0  0  0  0  0  0  0  0  0  0  0
   -0.5862   -6.8179   37.0549 H   0  0  0  0  0  0  0  0  0  0  0  0
    2.7484   -7.8014   38.8326 H   0  0  0  0  0  0  0  0  0  0  0  0
    0.1800   -6.9389   41.8201 H   0  0  0  0  0  0  0  0  0  0  0  0
   -1.1702   -6.2479   39.7676 H   0  0  0  0  0  0  0  0  0  0  0  0
   -0.6747   -6.8894   35.3672 H   0  0  0  0  0  0  0  0  0  0  0  0
    2.1622   -5.3788   33.8806 H   0  0  0  0  0  0  0  0  0  0  0  0
    2.0624   -3.7824   30.4742 H   0  0  0  0  0  0  0  0  0  0  0  0
    3.3092   -4.3327   31.5824 H   0  0  0  0  0  0  0  0  0  0  0  0
    2.4021   -3.0246   33.4091 H   0  0  0  0  0  0  0  0  0  0  0  0
    2.3248   -1.9931   31.9782 H   0  0  0  0  0  0  0  0  0  0  0  0
   -0.0015   -3.4657   33.2498 H   0  0  0  0  0  0  0  0  0  0  0  0
    0.9139    0.8105   31.0585 H   0  0  0  0  0  0  0  0  0  0  0  0
    0.5697    1.4010   28.6714 H   0  0  0  0  0  0  0  0  0  0  0  0
   -1.3765   -0.5986   26.5341 H   0  0  0  0  0  0  0  0  0  0  0  0
   -1.9852   -2.0205   28.1652 H   0  0  0  0  0  0  0  0  0  0  0  0
   -1.6814   -2.6138   30.5448 H   0  0  0  0  0  0  0  0  0  0  0  0
    0.5270   -5.5327   29.8808 H   0  0  0  0  0  0  0  0  0  0  0  0
   -1.8851   -8.3131   33.7620 H   0  0  0  0  0  0  0  0  0  0  0  0
  1  2  2  0
  2  3  1  0
  3  4  1  0
  4  5  1  0
  5  6  2  0
  6  7  1  0
  7  8  1  0
  2  9  1  0
  9 10  1  0
 10 11  2  0
 11 12  1  0
 12 13  1  0
 13 14  1  0
 14 15  1  0
 15 16  1  0
 16 17  2  0
 16 18  2  0
 16 19  1  0
 19 20  2  0
 20 21  1  0
 21 22  2  0
 22 23  1  0
 22 24  1  0
 24 25  2  0
 12 26  2  0
 26 27  1  0
 27 28  2  0
 28 29  1  0
 29 30  2  0
 30 31  1  0
  8  4  2  0
 31 10  1  0
 25 19  1  0
 31 27  1  0
  3 32  1  0
  5 33  1  0
  7 34  1  0
  8 35  1  0
  9 36  1  0
 11 37  1  0
 13 38  1  0
 13 39  1  0
 14 40  1  0
 14 41  1  0
 15 42  1  0
 20 43  1  0
 21 44  1  0
 23 45  1  0
 24 46  1  0
 25 47  1  0
 26 48  1  0
 30 49  1  0
M  END
>  <Energy>  (1027) 
-6.4022527358692392

>  <compound_id>  (1027) 
4489

>  <target_id>  (1027) 
1

>  <reference_id>  (1027) 
135

>  <inspiration_ids>  (1027) 
[158, 135]

>  <energy_score>  (1027) 
-37.309892270673245

>  <distance_score>  (1027) 
0.990685441982856

>  <path>  (1027) 
/opt/xchem-fragalysis-2/maxwin/BulkDock/SCRATCH/505735/C4489-P135/C4489-P135.minimised.mol

>  <scratch_subdir>  (1027) 
/opt/xchem-fragalysis-2/maxwin/BulkDock/SCRATCH/505735/C4489-P135

>  <fragmenstein_runtime>  (1027) 
6.336826801300049

>  <fragmenstein_outcome>  (1027) 
acceptable

>  <fragmenstein_mode>  (1027) 
expansion

>  <fragmenstein_error>  (1027) 


$$$$
C4491-P158
     RDKit          3D

 47 50  0  0  0  0  0  0  0  0999 V2000
   -0.3574   -7.9641   35.9202 O   0  0  0  0  0  0  0  0  0  0  0  0
   -0.5888   -6.8712   36.1370 C   0  0  0  0  0  0  0  0  0  0  0  0
   -0.6727   -6.1110   37.4943 N   0  0  0  0  0  0  0  0  0  0  0  0
   -0.4033   -6.5350   38.7594 C   0  0  0  0  0  0  0  0  0  0  0  0
    0.2085   -7.7407   39.1608 C   0  0  0  0  0  0  0  0  0  0  0  0
    0.4023   -7.7908   40.4824 N   0  0  0  0  0  0  0  0  0  0  0  0
   -0.1401   -6.6416   40.9189 N   0  0  0  0  0  0  0  0  0  0  0  0
   -0.5986   -5.8327   39.9177 C   0  0  0  0  0  0  0  0  0  0  0  0
   -0.8109   -5.6816   35.1647 N   0  0  0  0  0  0  0  0  0  0  0  0
   -0.6972   -5.6178   33.8088 C   0  0  0  0  0  0  0  0  0  0  0  0
    0.0216   -4.5592   33.3809 C   0  0  0  0  0  0  0  0  0  0  0  0
    1.0468   -4.8359   32.3725 C   0  0  0  0  0  0  0  0  0  0  0  0
    2.3939   -4.1639   32.6380 C   0  0  0  0  0  0  0  0  0  0  0  0
    3.2720   -4.8229   33.6995 N   0  0  0  0  0  0  0  0  0  0  0  0
    2.5701   -5.5570   35.0371 S   0  0  0  0  0  0  0  0  0  0  0  0
    2.1868   -6.8736   34.5822 O   0  0  0  0  0  0  0  0  0  0  0  0
    1.6573   -4.5956   35.6081 O   0  0  0  0  0  0  0  0  0  0  0  0
    3.7901   -5.7392   36.1778 N   0  0  0  0  0  0  0  0  0  0  0  0
    4.7914   -6.8109   35.9675 C   0  0  0  0  0  0  0  0  0  0  0  0
    5.1256   -7.3281   37.3640 C   0  0  0  0  0  0  0  0  0  0  0  0
    3.8087   -7.2352   38.0922 C   0  0  0  0  0  0  0  0  0  0  0  0
    3.2852   -5.8990   37.6057 C   0  0  0  0  0  0  0  0  0  0  0  0
    0.7658   -5.7398   31.4068 C   0  0  0  0  0  0  0  0  0  0  0  0
   -0.3022   -6.6657   31.6398 C   0  0  0  0  0  0  0  0  0  0  0  0
   -0.8027   -7.6543   30.9300 N   0  0  0  0  0  0  0  0  0  0  0  0
   -1.6143   -8.3902   31.7647 N   0  0  0  0  0  0  0  0  0  0  0  0
   -1.5788   -7.8401   32.9628 C   0  0  0  0  0  0  0  0  0  0  0  0
   -0.8568   -6.6829   32.9193 N   0  0  0  0  0  0  0  0  0  0  0  0
   -0.9792   -5.1689   37.3357 H   0  0  0  0  0  0  0  0  0  0  0  0
    0.5300   -8.5654   38.5380 H   0  0  0  0  0  0  0  0  0  0  0  0
   -0.1480   -6.4645   41.9178 H   0  0  0  0  0  0  0  0  0  0  0  0
   -1.0300   -4.8657   40.1294 H   0  0  0  0  0  0  0  0  0  0  0  0
   -0.9151   -4.8298   35.6900 H   0  0  0  0  0  0  0  0  0  0  0  0
    0.1811   -3.6829   34.0059 H   0  0  0  0  0  0  0  0  0  0  0  0
    2.2502   -3.1155   32.9248 H   0  0  0  0  0  0  0  0  0  0  0  0
    2.9790   -4.1562   31.7101 H   0  0  0  0  0  0  0  0  0  0  0  0
    3.9222   -5.4770   33.2755 H   0  0  0  0  0  0  0  0  0  0  0  0
    4.3915   -7.6307   35.3627 H   0  0  0  0  0  0  0  0  0  0  0  0
    5.6782   -6.4098   35.4687 H   0  0  0  0  0  0  0  0  0  0  0  0
    5.8697   -6.6771   37.8391 H   0  0  0  0  0  0  0  0  0  0  0  0
    5.5280   -8.3449   37.3427 H   0  0  0  0  0  0  0  0  0  0  0  0
    3.9129   -7.2770   39.1796 H   0  0  0  0  0  0  0  0  0  0  0  0
    3.1422   -8.0453   37.7740 H   0  0  0  0  0  0  0  0  0  0  0  0
    2.1995   -5.8535   37.6848 H   0  0  0  0  0  0  0  0  0  0  0  0
    3.7029   -5.0729   38.1926 H   0  0  0  0  0  0  0  0  0  0  0  0
    1.4387   -5.9480   30.5886 H   0  0  0  0  0  0  0  0  0  0  0  0
   -2.0786   -8.2065   33.8488 H   0  0  0  0  0  0  0  0  0  0  0  0
  1  2  2  0
  2  3  1  0
  3  4  1  0
  4  5  1  0
  5  6  2  0
  6  7  1  0
  7  8  1  0
  2  9  1  0
  9 10  1  0
 10 11  2  0
 11 12  1  0
 12 13  1  0
 13 14  1  0
 14 15  1  0
 15 16  2  0
 15 17  2  0
 15 18  1  0
 18 19  1  0
 19 20  1  0
 20 21  1  0
 21 22  1  0
 12 23  2  0
 23 24  1  0
 24 25  2  0
 25 26  1  0
 26 27  2  0
 27 28  1  0
  8  4  2  0
 28 10  1  0
 22 18  1  0
 28 24  1  0
  3 29  1  0
  5 30  1  0
  7 31  1  0
  8 32  1  0
  9 33  1  0
 11 34  1  0
 13 35  1  0
 13 36  1  0
 14 37  1  0
 19 38  1  0
 19 39  1  0
 20 40  1  0
 20 41  1  0
 21 42  1  0
 21 43  1  0
 22 44  1  0
 22 45  1  0
 23 46  1  0
 27 47  1  0
M  END
>  <Energy>  (1028) 
-133.4770189620273

>  <compound_id>  (1028) 
4491

>  <target_id>  (1028) 
1

>  <reference_id>  (1028) 
158

>  <inspiration_ids>  (1028) 
[158, 140]

>  <energy_score>  (1028) 
18.265789448105565

>  <distance_score>  (1028) 
1.5838201369889755

>  <path>  (1028) 
/opt/xchem-fragalysis-2/maxwin/BulkDock/SCRATCH/505735/C4491-P158/C4491-P158.minimised.mol

>  <scratch_subdir>  (1028) 
/opt/xchem-fragalysis-2/maxwin/BulkDock/SCRATCH/505735/C4491-P158

>  <fragmenstein_runtime>  (1028) 
11.387582063674927

>  <fragmenstein_outcome>  (1028) 
too moved

>  <fragmenstein_mode>  (1028) 
expansion

>  <fragmenstein_error>  (1028) 


$$$$
C4491-P140
     RDKit          3D

 47 50  0  0  0  0  0  0  0  0999 V2000
   -0.3975   -7.6763   35.9585 O   0  0  0  0  0  0  0  0  0  0  0  0
   -0.5277   -6.5587   36.1455 C   0  0  0  0  0  0  0  0  0  0  0  0
   -0.5306   -5.7537   37.4848 N   0  0  0  0  0  0  0  0  0  0  0  0
   -0.2889   -6.1655   38.7626 C   0  0  0  0  0  0  0  0  0  0  0  0
    0.2200   -7.4038   39.2080 C   0  0  0  0  0  0  0  0  0  0  0  0
    0.4049   -7.4235   40.5296 N   0  0  0  0  0  0  0  0  0  0  0  0
   -0.0336   -6.2219   40.9275 N   0  0  0  0  0  0  0  0  0  0  0  0
   -0.4123   -5.4083   39.8968 C   0  0  0  0  0  0  0  0  0  0  0  0
   -0.6502   -5.3782   35.1377 N   0  0  0  0  0  0  0  0  0  0  0  0
   -0.5426   -5.3631   33.7765 C   0  0  0  0  0  0  0  0  0  0  0  0
    0.2550   -4.3677   33.3323 C   0  0  0  0  0  0  0  0  0  0  0  0
    1.2926   -4.7498   32.3690 C   0  0  0  0  0  0  0  0  0  0  0  0
    2.6729   -4.1605   32.6511 C   0  0  0  0  0  0  0  0  0  0  0  0
    3.4753   -4.8278   33.7613 N   0  0  0  0  0  0  0  0  0  0  0  0
    2.7093   -5.5256   35.0792 S   0  0  0  0  0  0  0  0  0  0  0  0
    2.2748   -6.8277   34.6277 O   0  0  0  0  0  0  0  0  0  0  0  0
    1.8286   -4.5211   35.6265 O   0  0  0  0  0  0  0  0  0  0  0  0
    3.9038   -5.7544   36.2381 N   0  0  0  0  0  0  0  0  0  0  0  0
    4.8493   -6.8823   36.0571 C   0  0  0  0  0  0  0  0  0  0  0  0
    5.1392   -7.3975   37.4638 C   0  0  0  0  0  0  0  0  0  0  0  0
    3.8243   -7.2139   38.1775 C   0  0  0  0  0  0  0  0  0  0  0  0
    3.3879   -5.8567   37.6655 C   0  0  0  0  0  0  0  0  0  0  0  0
    0.9906   -5.6725   31.4278 C   0  0  0  0  0  0  0  0  0  0  0  0
   -0.1447   -6.5143   31.6524 C   0  0  0  0  0  0  0  0  0  0  0  0
   -0.6871   -7.4977   30.9653 N   0  0  0  0  0  0  0  0  0  0  0  0
   -1.5477   -8.1620   31.8093 N   0  0  0  0  0  0  0  0  0  0  0  0
   -1.4945   -7.5732   32.9866 C   0  0  0  0  0  0  0  0  0  0  0  0
   -0.7330   -6.4476   32.9149 N   0  0  0  0  0  0  0  0  0  0  0  0
   -0.5889   -4.7707   37.2886 H   0  0  0  0  0  0  0  0  0  0  0  0
    0.4889   -8.2729   38.6245 H   0  0  0  0  0  0  0  0  0  0  0  0
   -0.0247   -6.0150   41.9208 H   0  0  0  0  0  0  0  0  0  0  0  0
   -0.7514   -4.3988   40.0753 H   0  0  0  0  0  0  0  0  0  0  0  0
   -0.6725   -4.5057   35.6390 H   0  0  0  0  0  0  0  0  0  0  0  0
    0.4667   -3.4872   33.9366 H   0  0  0  0  0  0  0  0  0  0  0  0
    2.5916   -3.0939   32.8915 H   0  0  0  0  0  0  0  0  0  0  0  0
    3.2823   -4.2290   31.7413 H   0  0  0  0  0  0  0  0  0  0  0  0
    4.1456   -5.4871   33.3821 H   0  0  0  0  0  0  0  0  0  0  0  0
    4.4124   -7.6891   35.4608 H   0  0  0  0  0  0  0  0  0  0  0  0
    5.7618   -6.5376   35.5625 H   0  0  0  0  0  0  0  0  0  0  0  0
    5.9172   -6.7855   37.9364 H   0  0  0  0  0  0  0  0  0  0  0  0
    5.4796   -8.4369   37.4614 H   0  0  0  0  0  0  0  0  0  0  0  0
    3.9165   -7.2445   39.2663 H   0  0  0  0  0  0  0  0  0  0  0  0
    3.1125   -7.9867   37.8657 H   0  0  0  0  0  0  0  0  0  0  0  0
    2.3083   -5.7389   37.7383 H   0  0  0  0  0  0  0  0  0  0  0  0
    3.8556   -5.0483   38.2393 H   0  0  0  0  0  0  0  0  0  0  0  0
    1.6854   -5.9585   30.6522 H   0  0  0  0  0  0  0  0  0  0  0  0
   -2.0103   -7.8832   33.8814 H   0  0  0  0  0  0  0  0  0  0  0  0
  1  2  2  0
  2  3  1  0
  3  4  1  0
  4  5  1  0
  5  6  2  0
  6  7  1  0
  7  8  1  0
  2  9  1  0
  9 10  1  0
 10 11  2  0
 11 12  1  0
 12 13  1  0
 13 14  1  0
 14 15  1  0
 15 16  2  0
 15 17  2  0
 15 18  1  0
 18 19  1  0
 19 20  1  0
 20 21  1  0
 21 22  1  0
 12 23  2  0
 23 24  1  0
 24 25  2  0
 25 26  1  0
 26 27  2  0
 27 28  1  0
  8  4  2  0
 28 10  1  0
 22 18  1  0
 28 24  1  0
  3 29  1  0
  5 30  1  0
  7 31  1  0
  8 32  1  0
  9 33  1  0
 11 34  1  0
 13 35  1  0
 13 36  1  0
 14 37  1  0
 19 38  1  0
 19 39  1  0
 20 40  1  0
 20 41  1  0
 21 42  1  0
 21 43  1  0
 22 44  1  0
 22 45  1  0
 23 46  1  0
 27 47  1  0
M  END
>  <Energy>  (1029) 
-131.59898045454602

>  <compound_id>  (1029) 
4491

>  <target_id>  (1029) 
1

>  <reference_id>  (1029) 
140

>  <inspiration_ids>  (1029) 
[158, 140]

>  <energy_score>  (1029) 
20.143827955587227

>  <distance_score>  (1029) 
1.6185993595666104

>  <path>  (1029) 
/opt/xchem-fragalysis-2/maxwin/BulkDock/SCRATCH/505735/C4491-P140/C4491-P140.minimised.mol

>  <scratch_subdir>  (1029) 
/opt/xchem-fragalysis-2/maxwin/BulkDock/SCRATCH/505735/C4491-P140

>  <fragmenstein_runtime>  (1029) 
11.34844446182251

>  <fragmenstein_outcome>  (1029) 
too moved

>  <fragmenstein_mode>  (1029) 
expansion

>  <fragmenstein_error>  (1029) 


$$$$
C4492-P158
     RDKit          3D

 45 48  0  0  0  0  0  0  0  0999 V2000
   -1.6485    1.4172   26.6152 C   0  0  0  0  0  0  0  0  0  0  0  0
   -0.6737    0.9946   27.5864 N   0  0  0  0  0  0  0  0  0  0  0  0
    0.3493    1.7714   28.0485 C   0  0  0  0  0  0  0  0  0  0  0  0
    1.2061    0.9200   28.6977 C   0  0  0  0  0  0  0  0  0  0  0  0
    0.5957   -0.3498   28.6006 C   0  0  0  0  0  0  0  0  0  0  0  0
    1.3651   -1.8256   29.1285 S   0  0  0  0  0  0  0  0  0  0  0  0
    1.8051   -2.4781   27.9163 O   0  0  0  0  0  0  0  0  0  0  0  0
    2.3168   -1.4059   30.1351 O   0  0  0  0  0  0  0  0  0  0  0  0
    0.2146   -2.8070   29.8422 N   0  0  0  0  0  0  0  0  0  0  0  0
    0.1173   -2.8130   31.2870 C   0  0  0  0  0  0  0  0  0  0  0  0
   -0.0978   -4.2297   31.7646 C   0  0  0  0  0  0  0  0  0  0  0  0
   -0.2292   -4.3572   33.2151 C   0  0  0  0  0  0  0  0  0  0  0  0
   -0.4790   -5.5568   33.7665 C   0  0  0  0  0  0  0  0  0  0  0  0
   -0.4826   -5.6846   35.1192 N   0  0  0  0  0  0  0  0  0  0  0  0
    0.1468   -6.7808   36.0304 C   0  0  0  0  0  0  0  0  0  0  0  0
    0.6807   -7.7507   35.7546 O   0  0  0  0  0  0  0  0  0  0  0  0
   -0.1515   -6.1577   37.4288 N   0  0  0  0  0  0  0  0  0  0  0  0
    0.0674   -6.6518   38.6781 C   0  0  0  0  0  0  0  0  0  0  0  0
    0.7545   -7.8161   39.0664 C   0  0  0  0  0  0  0  0  0  0  0  0
    0.7720   -7.9694   40.3948 N   0  0  0  0  0  0  0  0  0  0  0  0
    0.0576   -6.9239   40.8408 N   0  0  0  0  0  0  0  0  0  0  0  0
   -0.3723   -6.0894   39.8483 C   0  0  0  0  0  0  0  0  0  0  0  0
   -0.7121   -6.6416   32.9120 N   0  0  0  0  0  0  0  0  0  0  0  0
   -1.2590   -7.8747   33.1295 C   0  0  0  0  0  0  0  0  0  0  0  0
   -1.4408   -8.4991   31.9842 N   0  0  0  0  0  0  0  0  0  0  0  0
   -0.9809   -7.6875   30.9795 N   0  0  0  0  0  0  0  0  0  0  0  0
   -0.5712   -6.5690   31.5360 C   0  0  0  0  0  0  0  0  0  0  0  0
   -0.1663   -5.3293   30.9788 C   0  0  0  0  0  0  0  0  0  0  0  0
   -0.6302   -0.2773   28.0425 N   0  0  0  0  0  0  0  0  0  0  0  0
   -2.5720    1.6699   27.1251 H   0  0  0  0  0  0  0  0  0  0  0  0
   -1.2729    2.2993   26.0888 H   0  0  0  0  0  0  0  0  0  0  0  0
   -1.7934    0.6148   25.8929 H   0  0  0  0  0  0  0  0  0  0  0  0
    0.4177    2.8261   27.8150 H   0  0  0  0  0  0  0  0  0  0  0  0
    2.1696    1.1610   29.1260 H   0  0  0  0  0  0  0  0  0  0  0  0
   -0.6614   -2.7777   29.3080 H   0  0  0  0  0  0  0  0  0  0  0  0
    1.0172   -2.4291   31.7753 H   0  0  0  0  0  0  0  0  0  0  0  0
   -0.7273   -2.1810   31.5843 H   0  0  0  0  0  0  0  0  0  0  0  0
   -0.0426   -3.4806   33.8296 H   0  0  0  0  0  0  0  0  0  0  0  0
   -0.8028   -4.9165   35.6852 H   0  0  0  0  0  0  0  0  0  0  0  0
   -0.7123   -5.3339   37.3188 H   0  0  0  0  0  0  0  0  0  0  0  0
    1.2413   -8.5505   38.4388 H   0  0  0  0  0  0  0  0  0  0  0  0
   -0.0915   -6.8377   41.8407 H   0  0  0  0  0  0  0  0  0  0  0  0
   -0.9541   -5.2076   40.0720 H   0  0  0  0  0  0  0  0  0  0  0  0
   -1.5253   -8.2502   34.1078 H   0  0  0  0  0  0  0  0  0  0  0  0
   -0.0482   -5.2769   29.9011 H   0  0  0  0  0  0  0  0  0  0  0  0
  1  2  1  0
  2  3  1  0
  3  4  2  0
  4  5  1  0
  5  6  1  0
  6  7  2  0
  6  8  2  0
  6  9  1  0
  9 10  1  0
 10 11  1  0
 11 12  1  0
 12 13  2  0
 13 14  1  0
 14 15  1  0
 15 16  2  0
 15 17  1  0
 17 18  1  0
 18 19  1  0
 19 20  2  0
 20 21  1  0
 21 22  1  0
 13 23  1  0
 23 24  1  0
 24 25  2  0
 25 26  1  0
 26 27  2  0
 27 28  1  0
  5 29  2  0
 29  2  1  0
 28 11  2  0
 22 18  2  0
 27 23  1  0
  1 30  1  0
  1 31  1  0
  1 32  1  0
  3 33  1  0
  4 34  1  0
  9 35  1  0
 10 36  1  0
 10 37  1  0
 12 38  1  0
 14 39  1  0
 17 40  1  0
 19 41  1  0
 21 42  1  0
 22 43  1  0
 24 44  1  0
 28 45  1  0
M  END
>  <Energy>  (1030) 
42.090050050499222

>  <compound_id>  (1030) 
4492

>  <target_id>  (1030) 
1

>  <reference_id>  (1030) 
158

>  <inspiration_ids>  (1030) 
[158, 141]

>  <energy_score>  (1030) 
-10.357112250615927

>  <distance_score>  (1030) 
1.0394361167702613

>  <path>  (1030) 
/opt/xchem-fragalysis-2/maxwin/BulkDock/SCRATCH/505735/C4492-P158/C4492-P158.minimised.mol

>  <scratch_subdir>  (1030) 
/opt/xchem-fragalysis-2/maxwin/BulkDock/SCRATCH/505735/C4492-P158

>  <fragmenstein_runtime>  (1030) 
4.847488164901733

>  <fragmenstein_outcome>  (1030) 
too moved

>  <fragmenstein_mode>  (1030) 
expansion

>  <fragmenstein_error>  (1030) 


$$$$
C4492-P141
     RDKit          3D

 45 48  0  0  0  0  0  0  0  0999 V2000
   -2.3930    1.0981   26.8850 C   0  0  0  0  0  0  0  0  0  0  0  0
   -1.2811    0.8997   27.7750 N   0  0  0  0  0  0  0  0  0  0  0  0
   -0.3618    1.8558   28.0985 C   0  0  0  0  0  0  0  0  0  0  0  0
    0.6518    1.1969   28.7458 C   0  0  0  0  0  0  0  0  0  0  0  0
    0.2292   -0.1504   28.8028 C   0  0  0  0  0  0  0  0  0  0  0  0
    1.2155   -1.4313   29.4271 S   0  0  0  0  0  0  0  0  0  0  0  0
    1.5907   -2.2521   28.2965 O   0  0  0  0  0  0  0  0  0  0  0  0
    2.2313   -0.7931   30.2369 O   0  0  0  0  0  0  0  0  0  0  0  0
    0.3200   -2.4344   30.4692 N   0  0  0  0  0  0  0  0  0  0  0  0
    1.2366   -3.4219   31.0521 C   0  0  0  0  0  0  0  0  0  0  0  0
    0.4591   -4.5579   31.6250 C   0  0  0  0  0  0  0  0  0  0  0  0
    0.2212   -4.5355   33.0628 C   0  0  0  0  0  0  0  0  0  0  0  0
   -0.2752   -5.6261   33.6751 C   0  0  0  0  0  0  0  0  0  0  0  0
   -0.3276   -5.6459   35.0395 N   0  0  0  0  0  0  0  0  0  0  0  0
   -0.1334   -6.8257   36.0395 C   0  0  0  0  0  0  0  0  0  0  0  0
    0.0192   -7.9383   35.8442 O   0  0  0  0  0  0  0  0  0  0  0  0
   -0.1758   -6.0367   37.3818 N   0  0  0  0  0  0  0  0  0  0  0  0
    0.0471   -6.4561   38.6576 C   0  0  0  0  0  0  0  0  0  0  0  0
    0.5072   -7.7071   39.1140 C   0  0  0  0  0  0  0  0  0  0  0  0
    0.5932   -7.7492   40.4458 N   0  0  0  0  0  0  0  0  0  0  0  0
    0.1600   -6.5424   40.8329 N   0  0  0  0  0  0  0  0  0  0  0  0
   -0.1563   -5.7153   39.7923 C   0  0  0  0  0  0  0  0  0  0  0  0
   -0.6829   -6.7025   32.8661 N   0  0  0  0  0  0  0  0  0  0  0  0
   -1.3743   -7.8487   33.1306 C   0  0  0  0  0  0  0  0  0  0  0  0
   -1.6290   -8.5027   32.0176 N   0  0  0  0  0  0  0  0  0  0  0  0
   -1.0975   -7.7949   30.9767 N   0  0  0  0  0  0  0  0  0  0  0  0
   -0.5431   -6.7178   31.4837 C   0  0  0  0  0  0  0  0  0  0  0  0
    0.1071   -5.6218   30.8755 C   0  0  0  0  0  0  0  0  0  0  0  0
   -1.0131   -0.3109   28.3095 N   0  0  0  0  0  0  0  0  0  0  0  0
   -2.0643    1.7116   26.0421 H   0  0  0  0  0  0  0  0  0  0  0  0
   -2.7284    0.1297   26.5156 H   0  0  0  0  0  0  0  0  0  0  0  0
   -3.1830    1.6205   27.4242 H   0  0  0  0  0  0  0  0  0  0  0  0
   -0.4834    2.8890   27.7996 H   0  0  0  0  0  0  0  0  0  0  0  0
    1.5840    1.6165   29.0984 H   0  0  0  0  0  0  0  0  0  0  0  0
   -0.4265   -2.8375   29.8937 H   0  0  0  0  0  0  0  0  0  0  0  0
    1.9178   -3.8276   30.2928 H   0  0  0  0  0  0  0  0  0  0  0  0
    1.8625   -2.9460   31.8162 H   0  0  0  0  0  0  0  0  0  0  0  0
    0.5447   -3.6610   33.6210 H   0  0  0  0  0  0  0  0  0  0  0  0
   -0.3536   -4.7753   35.5435 H   0  0  0  0  0  0  0  0  0  0  0  0
   -0.4100   -5.0779   37.2029 H   0  0  0  0  0  0  0  0  0  0  0  0
    0.7832   -8.5832   38.5412 H   0  0  0  0  0  0  0  0  0  0  0  0
    0.1146   -6.3486   41.8280 H   0  0  0  0  0  0  0  0  0  0  0  0
   -0.5148   -4.7119   39.9658 H   0  0  0  0  0  0  0  0  0  0  0  0
   -1.6929   -8.1432   34.1175 H   0  0  0  0  0  0  0  0  0  0  0  0
    0.3050   -5.6623   29.8103 H   0  0  0  0  0  0  0  0  0  0  0  0
  1  2  1  0
  2  3  1  0
  3  4  2  0
  4  5  1  0
  5  6  1  0
  6  7  2  0
  6  8  2  0
  6  9  1  0
  9 10  1  0
 10 11  1  0
 11 12  1  0
 12 13  2  0
 13 14  1  0
 14 15  1  0
 15 16  2  0
 15 17  1  0
 17 18  1  0
 18 19  1  0
 19 20  2  0
 20 21  1  0
 21 22  1  0
 13 23  1  0
 23 24  1  0
 24 25  2  0
 25 26  1  0
 26 27  2  0
 27 28  1  0
  5 29  2  0
 29  2  1  0
 28 11  2  0
 22 18  2  0
 27 23  1  0
  1 30  1  0
  1 31  1  0
  1 32  1  0
  3 33  1  0
  4 34  1  0
  9 35  1  0
 10 36  1  0
 10 37  1  0
 12 38  1  0
 14 39  1  0
 17 40  1  0
 19 41  1  0
 21 42  1  0
 22 43  1  0
 24 44  1  0
 28 45  1  0
M  END
>  <Energy>  (1031) 
35.398875309266764

>  <compound_id>  (1031) 
4492

>  <target_id>  (1031) 
1

>  <reference_id>  (1031) 
141

>  <inspiration_ids>  (1031) 
[158, 141]

>  <energy_score>  (1031) 
-17.048286991849466

>  <distance_score>  (1031) 
1.0961468324868067

>  <path>  (1031) 
/opt/xchem-fragalysis-2/maxwin/BulkDock/SCRATCH/505735/C4492-P141/C4492-P141.minimised.mol

>  <scratch_subdir>  (1031) 
/opt/xchem-fragalysis-2/maxwin/BulkDock/SCRATCH/505735/C4492-P141

>  <fragmenstein_runtime>  (1031) 
7.706113576889038

>  <fragmenstein_outcome>  (1031) 
too moved

>  <fragmenstein_mode>  (1031) 
expansion

>  <fragmenstein_error>  (1031) 


$$$$
C4493-P158
     RDKit          3D

 48 51  0  0  0  0  0  0  0  0999 V2000
   -1.3269   -1.5900   27.2649 C   0  0  0  0  0  0  0  0  0  0  0  0
   -0.6627   -0.3158   27.0683 N   0  0  0  0  0  0  0  0  0  0  0  0
   -1.2779    0.8558   26.7125 C   0  0  0  0  0  0  0  0  0  0  0  0
   -1.0870    1.6695   27.8155 C   0  0  0  0  0  0  0  0  0  0  0  0
   -0.2682    0.8672   28.6756 C   0  0  0  0  0  0  0  0  0  0  0  0
   -0.6144    0.3938   30.3275 S   0  0  0  0  0  0  0  0  0  0  0  0
   -1.9632   -0.1186   30.2495 O   0  0  0  0  0  0  0  0  0  0  0  0
   -0.2366    1.4913   31.1851 O   0  0  0  0  0  0  0  0  0  0  0  0
    0.4210   -0.9390   30.6169 N   0  0  0  0  0  0  0  0  0  0  0  0
   -0.2361   -2.1809   31.0737 C   0  0  0  0  0  0  0  0  0  0  0  0
    0.6369   -3.3816   30.7148 C   0  0  0  0  0  0  0  0  0  0  0  0
    0.2916   -4.6379   31.4462 C   0  0  0  0  0  0  0  0  0  0  0  0
    0.3058   -4.5857   32.9180 C   0  0  0  0  0  0  0  0  0  0  0  0
   -0.1768   -5.6208   33.6278 C   0  0  0  0  0  0  0  0  0  0  0  0
   -0.1900   -5.5258   34.9715 N   0  0  0  0  0  0  0  0  0  0  0  0
    0.3646   -6.5101   36.0678 C   0  0  0  0  0  0  0  0  0  0  0  0
    0.9610   -7.4805   35.9536 O   0  0  0  0  0  0  0  0  0  0  0  0
   -0.2157   -5.8267   37.3470 N   0  0  0  0  0  0  0  0  0  0  0  0
   -0.2415   -6.2506   38.6367 C   0  0  0  0  0  0  0  0  0  0  0  0
    0.3519   -7.4140   39.1869 C   0  0  0  0  0  0  0  0  0  0  0  0
    0.1746   -7.5021   40.5125 N   0  0  0  0  0  0  0  0  0  0  0  0
   -0.5566   -6.4125   40.7938 N   0  0  0  0  0  0  0  0  0  0  0  0
   -0.8049   -5.6194   39.7057 C   0  0  0  0  0  0  0  0  0  0  0  0
   -0.6748   -6.7300   32.9344 N   0  0  0  0  0  0  0  0  0  0  0  0
   -1.3834   -7.8307   33.3366 C   0  0  0  0  0  0  0  0  0  0  0  0
   -1.6889   -8.5716   32.2968 N   0  0  0  0  0  0  0  0  0  0  0  0
   -1.2051   -7.9587   31.1676 N   0  0  0  0  0  0  0  0  0  0  0  0
   -0.6311   -6.8429   31.5516 C   0  0  0  0  0  0  0  0  0  0  0  0
   -0.0925   -5.7668   30.8137 C   0  0  0  0  0  0  0  0  0  0  0  0
    0.3521   -0.0601   27.9218 N   0  0  0  0  0  0  0  0  0  0  0  0
   -0.5678   -2.3444   27.3844 H   0  0  0  0  0  0  0  0  0  0  0  0
   -1.9203   -1.5591   28.1737 H   0  0  0  0  0  0  0  0  0  0  0  0
   -1.9835   -1.8175   26.4304 H   0  0  0  0  0  0  0  0  0  0  0  0
   -2.0022    0.9157   25.9153 H   0  0  0  0  0  0  0  0  0  0  0  0
   -1.7746    2.4667   28.0106 H   0  0  0  0  0  0  0  0  0  0  0  0
    1.0106   -1.0396   29.7806 H   0  0  0  0  0  0  0  0  0  0  0  0
   -1.2353   -2.3073   30.5933 H   0  0  0  0  0  0  0  0  0  0  0  0
   -0.3877   -2.1054   32.1550 H   0  0  0  0  0  0  0  0  0  0  0  0
    0.4903   -3.5368   29.6372 H   0  0  0  0  0  0  0  0  0  0  0  0
    1.6939   -3.1656   30.8321 H   0  0  0  0  0  0  0  0  0  0  0  0
    0.7490   -3.7080   33.4030 H   0  0  0  0  0  0  0  0  0  0  0  0
   -0.7401   -4.8081   35.4083 H   0  0  0  0  0  0  0  0  0  0  0  0
   -0.6172   -4.9389   37.1031 H   0  0  0  0  0  0  0  0  0  0  0  0
    0.9048   -8.1949   38.6745 H   0  0  0  0  0  0  0  0  0  0  0  0
   -0.8576   -6.2773   41.7526 H   0  0  0  0  0  0  0  0  0  0  0  0
   -1.3800   -4.7192   39.8005 H   0  0  0  0  0  0  0  0  0  0  0  0
   -1.6433   -8.0389   34.3695 H   0  0  0  0  0  0  0  0  0  0  0  0
   -0.1424   -5.8153   29.7325 H   0  0  0  0  0  0  0  0  0  0  0  0
  1  2  1  0
  2  3  1  0
  3  4  2  0
  4  5  1  0
  5  6  1  0
  6  7  2  0
  6  8  2  0
  6  9  1  0
  9 10  1  0
 10 11  1  0
 11 12  1  0
 12 13  1  0
 13 14  2  0
 14 15  1  0
 15 16  1  0
 16 17  2  0
 16 18  1  0
 18 19  1  0
 19 20  1  0
 20 21  2  0
 21 22  1  0
 22 23  1  0
 14 24  1  0
 24 25  1  0
 25 26  2  0
 26 27  1  0
 27 28  2  0
 28 29  1  0
  5 30  2  0
 30  2  1  0
 29 12  2  0
 23 19  2  0
 28 24  1  0
  1 31  1  0
  1 32  1  0
  1 33  1  0
  3 34  1  0
  4 35  1  0
  9 36  1  0
 10 37  1  0
 10 38  1  0
 11 39  1  0
 11 40  1  0
 13 41  1  0
 15 42  1  0
 18 43  1  0
 20 44  1  0
 22 45  1  0
 23 46  1  0
 25 47  1  0
 29 48  1  0
M  END
>  <Energy>  (1032) 
116.13303510972491

>  <compound_id>  (1032) 
4493

>  <target_id>  (1032) 
1

>  <reference_id>  (1032) 
158

>  <inspiration_ids>  (1032) 
[158, 142]

>  <energy_score>  (1032) 
-2.1956043738557014

>  <distance_score>  (1032) 
1.3151636656342571

>  <path>  (1032) 
/opt/xchem-fragalysis-2/maxwin/BulkDock/SCRATCH/505735/C4493-P158/C4493-P158.minimised.mol

>  <scratch_subdir>  (1032) 
/opt/xchem-fragalysis-2/maxwin/BulkDock/SCRATCH/505735/C4493-P158

>  <fragmenstein_runtime>  (1032) 
4.28108286857605

>  <fragmenstein_outcome>  (1032) 
too moved

>  <fragmenstein_mode>  (1032) 
expansion

>  <fragmenstein_error>  (1032) 


$$$$
C4493-P142
     RDKit          3D

 48 51  0  0  0  0  0  0  0  0999 V2000
   -2.9529    2.2132   25.9465 C   0  0  0  0  0  0  0  0  0  0  0  0
   -2.0011    1.8858   26.9624 N   0  0  0  0  0  0  0  0  0  0  0  0
   -1.1938    2.7324   27.6515 C   0  0  0  0  0  0  0  0  0  0  0  0
   -0.6092    1.9624   28.6326 C   0  0  0  0  0  0  0  0  0  0  0  0
   -1.1371    0.6638   28.4367 C   0  0  0  0  0  0  0  0  0  0  0  0
   -1.0332   -0.6798   29.5263 S   0  0  0  0  0  0  0  0  0  0  0  0
   -1.2403   -1.8766   28.7487 O   0  0  0  0  0  0  0  0  0  0  0  0
   -1.8908   -0.3145   30.6389 O   0  0  0  0  0  0  0  0  0  0  0  0
    0.5371   -0.8363   30.1512 N   0  0  0  0  0  0  0  0  0  0  0  0
    0.6068   -1.8371   31.2440 C   0  0  0  0  0  0  0  0  0  0  0  0
    1.1155   -3.1874   30.7333 C   0  0  0  0  0  0  0  0  0  0  0  0
    0.5440   -4.3947   31.4310 C   0  0  0  0  0  0  0  0  0  0  0  0
    0.5545   -4.4264   32.8908 C   0  0  0  0  0  0  0  0  0  0  0  0
    0.0905   -5.5078   33.5441 C   0  0  0  0  0  0  0  0  0  0  0  0
    0.1526   -5.5433   34.9042 N   0  0  0  0  0  0  0  0  0  0  0  0
    0.5214   -6.7124   35.8673 C   0  0  0  0  0  0  0  0  0  0  0  0
    0.8911   -7.7667   35.6378 O   0  0  0  0  0  0  0  0  0  0  0  0
    0.1498   -6.0493   37.2305 N   0  0  0  0  0  0  0  0  0  0  0  0
    0.2565   -6.5276   38.5015 C   0  0  0  0  0  0  0  0  0  0  0  0
    0.7657   -7.7624   38.9483 C   0  0  0  0  0  0  0  0  0  0  0  0
    0.7024   -7.8795   40.2792 N   0  0  0  0  0  0  0  0  0  0  0  0
    0.1114   -6.7395   40.6682 N   0  0  0  0  0  0  0  0  0  0  0  0
   -0.1616   -5.8842   39.6379 C   0  0  0  0  0  0  0  0  0  0  0  0
   -0.4470   -6.5642   32.7864 N   0  0  0  0  0  0  0  0  0  0  0  0
   -1.1076   -7.7099   33.1319 C   0  0  0  0  0  0  0  0  0  0  0  0
   -1.5155   -8.3471   32.0544 N   0  0  0  0  0  0  0  0  0  0  0  0
   -1.1220   -7.6255   30.9594 N   0  0  0  0  0  0  0  0  0  0  0  0
   -0.5023   -6.5532   31.4004 C   0  0  0  0  0  0  0  0  0  0  0  0
    0.0380   -5.4300   30.7289 C   0  0  0  0  0  0  0  0  0  0  0  0
   -1.8816    0.6153   27.3291 N   0  0  0  0  0  0  0  0  0  0  0  0
   -2.4660    2.0961   24.9774 H   0  0  0  0  0  0  0  0  0  0  0  0
   -3.8252    1.5637   26.0378 H   0  0  0  0  0  0  0  0  0  0  0  0
   -3.2678    3.2520   26.0711 H   0  0  0  0  0  0  0  0  0  0  0  0
   -1.1573    3.7929   27.4420 H   0  0  0  0  0  0  0  0  0  0  0  0
    0.0266    2.3071   29.4350 H   0  0  0  0  0  0  0  0  0  0  0  0
    1.1796   -1.0161   29.3774 H   0  0  0  0  0  0  0  0  0  0  0  0
   -0.3548   -1.9292   31.7601 H   0  0  0  0  0  0  0  0  0  0  0  0
    1.3085   -1.4455   31.9907 H   0  0  0  0  0  0  0  0  0  0  0  0
    0.9296   -3.2726   29.6546 H   0  0  0  0  0  0  0  0  0  0  0  0
    2.2087   -3.2101   30.8384 H   0  0  0  0  0  0  0  0  0  0  0  0
    0.9900   -3.5900   33.4286 H   0  0  0  0  0  0  0  0  0  0  0  0
   -0.0608   -4.7183   35.4391 H   0  0  0  0  0  0  0  0  0  0  0  0
   -0.2186   -5.1307   37.0700 H   0  0  0  0  0  0  0  0  0  0  0  0
    1.1735   -8.5755   38.3614 H   0  0  0  0  0  0  0  0  0  0  0  0
   -0.0712   -6.6086   41.6576 H   0  0  0  0  0  0  0  0  0  0  0  0
   -0.6360   -4.9306   39.8149 H   0  0  0  0  0  0  0  0  0  0  0  0
   -1.2721   -8.0262   34.1516 H   0  0  0  0  0  0  0  0  0  0  0  0
   -0.0040   -5.4131   29.6465 H   0  0  0  0  0  0  0  0  0  0  0  0
  1  2  1  0
  2  3  1  0
  3  4  2  0
  4  5  1  0
  5  6  1  0
  6  7  2  0
  6  8  2  0
  6  9  1  0
  9 10  1  0
 10 11  1  0
 11 12  1  0
 12 13  1  0
 13 14  2  0
 14 15  1  0
 15 16  1  0
 16 17  2  0
 16 18  1  0
 18 19  1  0
 19 20  1  0
 20 21  2  0
 21 22  1  0
 22 23  1  0
 14 24  1  0
 24 25  1  0
 25 26  2  0
 26 27  1  0
 27 28  2  0
 28 29  1  0
  5 30  2  0
 30  2  1  0
 29 12  2  0
 23 19  2  0
 28 24  1  0
  1 31  1  0
  1 32  1  0
  1 33  1  0
  3 34  1  0
  4 35  1  0
  9 36  1  0
 10 37  1  0
 10 38  1  0
 11 39  1  0
 11 40  1  0
 13 41  1  0
 15 42  1  0
 18 43  1  0
 20 44  1  0
 22 45  1  0
 23 46  1  0
 25 47  1  0
 29 48  1  0
M  END
>  <Energy>  (1033) 
74.900376457980798

>  <compound_id>  (1033) 
4493

>  <target_id>  (1033) 
1

>  <reference_id>  (1033) 
142

>  <inspiration_ids>  (1033) 
[158, 142]

>  <energy_score>  (1033) 
-43.42826302560027

>  <distance_score>  (1033) 
1.2715263082465649

>  <path>  (1033) 
/opt/xchem-fragalysis-2/maxwin/BulkDock/SCRATCH/505735/C4493-P142/C4493-P142.minimised.mol

>  <scratch_subdir>  (1033) 
/opt/xchem-fragalysis-2/maxwin/BulkDock/SCRATCH/505735/C4493-P142

>  <fragmenstein_runtime>  (1033) 
6.967757940292358

>  <fragmenstein_outcome>  (1033) 
too moved

>  <fragmenstein_mode>  (1033) 
expansion

>  <fragmenstein_error>  (1033) 


$$$$
C4494-P158
     RDKit          3D

 41 44  0  0  0  0  0  0  0  0999 V2000
    0.7340   -7.6886   35.5818 O   0  0  0  0  0  0  0  0  0  0  0  0
    0.2562   -6.6848   35.8427 C   0  0  0  0  0  0  0  0  0  0  0  0
   -0.0432   -6.0417   37.2338 N   0  0  0  0  0  0  0  0  0  0  0  0
    0.1052   -6.5487   38.4902 C   0  0  0  0  0  0  0  0  0  0  0  0
    0.7099   -7.7508   38.9026 C   0  0  0  0  0  0  0  0  0  0  0  0
    0.6794   -7.8999   40.2315 N   0  0  0  0  0  0  0  0  0  0  0  0
    0.0089   -6.8168   40.6537 N   0  0  0  0  0  0  0  0  0  0  0  0
   -0.3399   -5.9614   39.6466 C   0  0  0  0  0  0  0  0  0  0  0  0
   -0.3114   -5.5665   34.9127 N   0  0  0  0  0  0  0  0  0  0  0  0
   -0.3015   -5.4601   33.5555 C   0  0  0  0  0  0  0  0  0  0  0  0
   -0.0276   -4.2776   32.9733 C   0  0  0  0  0  0  0  0  0  0  0  0
    0.0303   -4.1692   31.5141 C   0  0  0  0  0  0  0  0  0  0  0  0
    0.0824   -2.7730   30.9386 C   0  0  0  0  0  0  0  0  0  0  0  0
    1.2357   -2.5919   30.0676 N   0  0  0  0  0  0  0  0  0  0  0  0
    0.9013   -2.2361   28.4571 S   0  0  0  0  0  0  0  0  0  0  0  0
   -0.2646   -3.0063   28.1060 O   0  0  0  0  0  0  0  0  0  0  0  0
    2.1750   -2.4032   27.7876 O   0  0  0  0  0  0  0  0  0  0  0  0
    0.4669   -0.5524   28.2361 C   0  0  0  0  0  0  0  0  0  0  0  0
    1.3376    0.4036   27.7369 C   0  0  0  0  0  0  0  0  0  0  0  0
    0.5238    1.8846   27.4818 S   0  0  0  0  0  0  0  0  0  0  0  0
   -0.9162    1.1495   28.0349 C   0  0  0  0  0  0  0  0  0  0  0  0
   -0.8159   -0.0750   28.5060 N   0  0  0  0  0  0  0  0  0  0  0  0
   -0.0998   -5.2752   30.7476 C   0  0  0  0  0  0  0  0  0  0  0  0
   -0.4749   -6.5101   31.3455 C   0  0  0  0  0  0  0  0  0  0  0  0
   -0.9029   -7.6395   30.8244 N   0  0  0  0  0  0  0  0  0  0  0  0
   -1.3517   -8.4265   31.8546 N   0  0  0  0  0  0  0  0  0  0  0  0
   -1.1456   -7.7782   32.9818 C   0  0  0  0  0  0  0  0  0  0  0  0
   -0.5832   -6.5565   32.7273 N   0  0  0  0  0  0  0  0  0  0  0  0
   -0.5455   -5.1829   37.1079 H   0  0  0  0  0  0  0  0  0  0  0  0
    1.1715   -8.5152   38.2923 H   0  0  0  0  0  0  0  0  0  0  0  0
   -0.1696   -6.7211   41.6479 H   0  0  0  0  0  0  0  0  0  0  0  0
   -0.8777   -5.0480   39.8524 H   0  0  0  0  0  0  0  0  0  0  0  0
   -0.5870   -4.7723   35.4666 H   0  0  0  0  0  0  0  0  0  0  0  0
    0.1920   -3.3946   33.5668 H   0  0  0  0  0  0  0  0  0  0  0  0
    0.1814   -2.0293   31.7392 H   0  0  0  0  0  0  0  0  0  0  0  0
   -0.8718   -2.5363   30.4548 H   0  0  0  0  0  0  0  0  0  0  0  0
    1.9673   -3.2965   30.1311 H   0  0  0  0  0  0  0  0  0  0  0  0
    2.3767    0.2774   27.4647 H   0  0  0  0  0  0  0  0  0  0  0  0
   -1.8469    1.6962   28.0063 H   0  0  0  0  0  0  0  0  0  0  0  0
   -0.1107   -5.2105   29.6634 H   0  0  0  0  0  0  0  0  0  0  0  0
   -1.4019   -8.1340   33.9708 H   0  0  0  0  0  0  0  0  0  0  0  0
  1  2  2  0
  2  3  1  0
  3  4  1  0
  4  5  1  0
  5  6  2  0
  6  7  1  0
  7  8  1  0
  2  9  1  0
  9 10  1  0
 10 11  2  0
 11 12  1  0
 12 13  1  0
 13 14  1  0
 14 15  1  0
 15 16  2  0
 15 17  2  0
 15 18  1  0
 18 19  2  0
 19 20  1  0
 20 21  1  0
 21 22  2  0
 12 23  2  0
 23 24  1  0
 24 25  2  0
 25 26  1  0
 26 27  2  0
 27 28  1  0
  8  4  2  0
 28 10  1  0
 22 18  1  0
 28 24  1  0
  3 29  1  0
  5 30  1  0
  7 31  1  0
  8 32  1  0
  9 33  1  0
 11 34  1  0
 13 35  1  0
 13 36  1  0
 14 37  1  0
 19 38  1  0
 21 39  1  0
 23 40  1  0
 27 41  1  0
M  END
>  <Energy>  (1034) 
15.198770874411538

>  <compound_id>  (1034) 
4494

>  <target_id>  (1034) 
1

>  <reference_id>  (1034) 
158

>  <inspiration_ids>  (1034) 
[158, 147]

>  <energy_score>  (1034) 
-88.26524980803234

>  <distance_score>  (1034) 
1.081705128612559

>  <path>  (1034) 
/opt/xchem-fragalysis-2/maxwin/BulkDock/SCRATCH/505735/C4494-P158/C4494-P158.minimised.mol

>  <scratch_subdir>  (1034) 
/opt/xchem-fragalysis-2/maxwin/BulkDock/SCRATCH/505735/C4494-P158

>  <fragmenstein_runtime>  (1034) 
6.716886758804321

>  <fragmenstein_outcome>  (1034) 
too moved

>  <fragmenstein_mode>  (1034) 
expansion

>  <fragmenstein_error>  (1034) 


$$$$
C4494-P147
     RDKit          3D

 41 44  0  0  0  0  0  0  0  0999 V2000
    0.5076   -7.8113   35.6696 O   0  0  0  0  0  0  0  0  0  0  0  0
    0.2956   -6.7072   35.8652 C   0  0  0  0  0  0  0  0  0  0  0  0
    0.1652   -5.9299   37.2107 N   0  0  0  0  0  0  0  0  0  0  0  0
    0.1813   -6.3828   38.4961 C   0  0  0  0  0  0  0  0  0  0  0  0
    0.5406   -7.6545   38.9854 C   0  0  0  0  0  0  0  0  0  0  0  0
    0.4230   -7.7280   40.3137 N   0  0  0  0  0  0  0  0  0  0  0  0
   -0.0296   -6.5175   40.6638 N   0  0  0  0  0  0  0  0  0  0  0  0
   -0.1743   -5.6627   39.6071 C   0  0  0  0  0  0  0  0  0  0  0  0
    0.0920   -5.5265   34.8625 N   0  0  0  0  0  0  0  0  0  0  0  0
    0.0257   -5.5268   33.4985 C   0  0  0  0  0  0  0  0  0  0  0  0
    0.5412   -4.4853   32.8149 C   0  0  0  0  0  0  0  0  0  0  0  0
    0.6377   -4.5475   31.3571 C   0  0  0  0  0  0  0  0  0  0  0  0
    1.4844   -3.5262   30.6572 C   0  0  0  0  0  0  0  0  0  0  0  0
    0.7530   -2.2626   30.4642 N   0  0  0  0  0  0  0  0  0  0  0  0
    0.5011   -1.9293   28.8202 S   0  0  0  0  0  0  0  0  0  0  0  0
   -0.5571   -2.8140   28.4038 O   0  0  0  0  0  0  0  0  0  0  0  0
    1.8313   -1.9640   28.2432 O   0  0  0  0  0  0  0  0  0  0  0  0
   -0.0541   -0.2921   28.5501 C   0  0  0  0  0  0  0  0  0  0  0  0
    0.7364    0.6919   27.9736 C   0  0  0  0  0  0  0  0  0  0  0  0
   -0.1631    2.1246   27.7361 S   0  0  0  0  0  0  0  0  0  0  0  0
   -1.5295    1.3357   28.3971 C   0  0  0  0  0  0  0  0  0  0  0  0
   -1.3427    0.1228   28.8743 N   0  0  0  0  0  0  0  0  0  0  0  0
    0.1039   -5.5853   30.6797 C   0  0  0  0  0  0  0  0  0  0  0  0
   -0.5374   -6.6367   31.3752 C   0  0  0  0  0  0  0  0  0  0  0  0
   -1.1737   -7.7083   30.9563 N   0  0  0  0  0  0  0  0  0  0  0  0
   -1.6223   -8.3758   32.0636 N   0  0  0  0  0  0  0  0  0  0  0  0
   -1.2334   -7.7051   33.1267 C   0  0  0  0  0  0  0  0  0  0  0  0
   -0.5272   -6.5927   32.7623 N   0  0  0  0  0  0  0  0  0  0  0  0
   -0.1066   -4.9815   37.0281 H   0  0  0  0  0  0  0  0  0  0  0  0
    0.8813   -8.5249   38.4392 H   0  0  0  0  0  0  0  0  0  0  0  0
   -0.2150   -6.3425   41.6461 H   0  0  0  0  0  0  0  0  0  0  0  0
   -0.5316   -4.6543   39.7522 H   0  0  0  0  0  0  0  0  0  0  0  0
    0.0038   -4.6620   35.3702 H   0  0  0  0  0  0  0  0  0  0  0  0
    0.9802   -3.6288   33.3172 H   0  0  0  0  0  0  0  0  0  0  0  0
    1.8629   -3.9433   29.7163 H   0  0  0  0  0  0  0  0  0  0  0  0
    2.3838   -3.3141   31.2499 H   0  0  0  0  0  0  0  0  0  0  0  0
    1.2086   -1.4673   30.9071 H   0  0  0  0  0  0  0  0  0  0  0  0
    1.7628    0.6127   27.6423 H   0  0  0  0  0  0  0  0  0  0  0  0
   -2.4822    1.8449   28.4385 H   0  0  0  0  0  0  0  0  0  0  0  0
    0.1660   -5.6481   29.6002 H   0  0  0  0  0  0  0  0  0  0  0  0
   -1.4525   -7.9730   34.1483 H   0  0  0  0  0  0  0  0  0  0  0  0
  1  2  2  0
  2  3  1  0
  3  4  1  0
  4  5  1  0
  5  6  2  0
  6  7  1  0
  7  8  1  0
  2  9  1  0
  9 10  1  0
 10 11  2  0
 11 12  1  0
 12 13  1  0
 13 14  1  0
 14 15  1  0
 15 16  2  0
 15 17  2  0
 15 18  1  0
 18 19  2  0
 19 20  1  0
 20 21  1  0
 21 22  2  0
 12 23  2  0
 23 24  1  0
 24 25  2  0
 25 26  1  0
 26 27  2  0
 27 28  1  0
  8  4  2  0
 28 10  1  0
 22 18  1  0
 28 24  1  0
  3 29  1  0
  5 30  1  0
  7 31  1  0
  8 32  1  0
  9 33  1  0
 11 34  1  0
 13 35  1  0
 13 36  1  0
 14 37  1  0
 19 38  1  0
 21 39  1  0
 23 40  1  0
 27 41  1  0
M  END
>  <Energy>  (1035) 
16.618089861090837

>  <compound_id>  (1035) 
4494

>  <target_id>  (1035) 
1

>  <reference_id>  (1035) 
147

>  <inspiration_ids>  (1035) 
[158, 147]

>  <energy_score>  (1035) 
-86.84593082135447

>  <distance_score>  (1035) 
0.9797044106952034

>  <path>  (1035) 
/opt/xchem-fragalysis-2/maxwin/BulkDock/SCRATCH/505735/C4494-P147/C4494-P147.minimised.mol

>  <scratch_subdir>  (1035) 
/opt/xchem-fragalysis-2/maxwin/BulkDock/SCRATCH/505735/C4494-P147

>  <fragmenstein_runtime>  (1035) 
4.619053602218628

>  <fragmenstein_outcome>  (1035) 
acceptable

>  <fragmenstein_mode>  (1035) 
expansion

>  <fragmenstein_error>  (1035) 


$$$$
C126-P175
     RDKit          2D

  0  0  0  0  0  0  0  0  0  0999 V2000
M  END
>  <compound_id>  (1036) 
126

>  <target_id>  (1036) 
1

>  <reference_id>  (1036) 
175

>  <inspiration_ids>  (1036) 
[158, 175]

>  <energy_score>  (1036) 
nan

>  <distance_score>  (1036) 
nan

>  <path>  (1036) 
/opt/xchem-fragalysis-2/maxwin/BulkDock/SCRATCH/505735/C126-P175/C126-P175.minimised.mol

>  <scratch_subdir>  (1036) 
/opt/xchem-fragalysis-2/maxwin/BulkDock/SCRATCH/505735/C126-P175

>  <fragmenstein_runtime>  (1036) 
0.33930063247680664

>  <fragmenstein_outcome>  (1036) 
too distant

>  <fragmenstein_mode>  (1036) 
expansion

>  <fragmenstein_error>  (1036) 
DistanceError: hit0+hit1

$$$$
C4467-P158
     RDKit          3D

 56 59  0  0  0  0  0  0  0  0999 V2000
    5.3326   -1.0518   26.0657 C   0  0  0  0  0  0  0  0  0  0  0  0
    4.1924   -1.2915   26.8982 N   0  0  0  0  0  0  0  0  0  0  0  0
    3.9599   -2.3507   28.0052 C   0  0  0  0  0  0  0  0  0  0  0  0
    4.6877   -3.1394   28.4608 O   0  0  0  0  0  0  0  0  0  0  0  0
    2.5090   -2.1672   28.4439 C   0  0  0  0  0  0  0  0  0  0  0  0
    2.0295   -3.2562   29.4211 C   0  0  0  0  0  0  0  0  0  0  0  0
    0.5026   -3.3690   29.3623 C   0  0  0  0  0  0  0  0  0  0  0  0
   -0.1847   -3.7209   30.6879 C   0  0  0  0  0  0  0  0  0  0  0  0
    0.6076   -4.6699   31.6278 C   0  0  0  0  0  0  0  0  0  0  0  0
    1.0901   -5.9152   30.8889 C   0  0  0  0  0  0  0  0  0  0  0  0
   -0.0305   -6.7221   30.2972 C   0  0  0  0  0  0  0  0  0  0  0  0
   -0.9086   -7.1690   31.3538 C   0  0  0  0  0  0  0  0  0  0  0  0
   -1.6486   -8.2410   31.3274 N   0  0  0  0  0  0  0  0  0  0  0  0
   -2.1223   -8.4105   32.5808 N   0  0  0  0  0  0  0  0  0  0  0  0
   -1.6593   -7.4509   33.3488 C   0  0  0  0  0  0  0  0  0  0  0  0
   -1.8331   -7.4315   34.6872 N   0  0  0  0  0  0  0  0  0  0  0  0
   -0.9828   -6.5370   32.5613 N   0  0  0  0  0  0  0  0  0  0  0  0
   -0.3506   -5.2103   32.8345 C   0  0  0  0  0  0  0  0  0  0  0  0
    0.0291   -5.1895   34.2228 N   0  0  0  0  0  0  0  0  0  0  0  0
    0.9929   -6.1158   35.0171 C   0  0  0  0  0  0  0  0  0  0  0  0
    1.6663   -6.9649   34.6551 O   0  0  0  0  0  0  0  0  0  0  0  0
    0.6912   -5.6138   36.4677 N   0  0  0  0  0  0  0  0  0  0  0  0
    1.0825   -6.1175   37.6785 C   0  0  0  0  0  0  0  0  0  0  0  0
    1.8886   -7.2272   37.9961 C   0  0  0  0  0  0  0  0  0  0  0  0
    1.8808   -7.5040   39.3060 N   0  0  0  0  0  0  0  0  0  0  0  0
    1.0253   -6.6038   39.8154 N   0  0  0  0  0  0  0  0  0  0  0  0
    0.5446   -5.7260   38.8838 C   0  0  0  0  0  0  0  0  0  0  0  0
    1.8635   -3.8506   31.9934 C   0  0  0  0  0  0  0  0  0  0  0  0
    2.5026   -2.9936   30.8541 C   0  0  0  0  0  0  0  0  0  0  0  0
    6.1329   -1.7463   26.3292 H   0  0  0  0  0  0  0  0  0  0  0  0
    5.6583   -0.0210   26.2181 H   0  0  0  0  0  0  0  0  0  0  0  0
    5.0360   -1.1968   25.0255 H   0  0  0  0  0  0  0  0  0  0  0  0
    3.3656   -0.7127   26.8041 H   0  0  0  0  0  0  0  0  0  0  0  0
    2.3958   -1.1701   28.8849 H   0  0  0  0  0  0  0  0  0  0  0  0
    1.8933   -2.2075   27.5388 H   0  0  0  0  0  0  0  0  0  0  0  0
    2.4621   -4.2002   29.0763 H   0  0  0  0  0  0  0  0  0  0  0  0
    0.2362   -4.1090   28.6015 H   0  0  0  0  0  0  0  0  0  0  0  0
    0.0600   -2.4276   29.0103 H   0  0  0  0  0  0  0  0  0  0  0  0
   -1.1809   -4.1009   30.4765 H   0  0  0  0  0  0  0  0  0  0  0  0
   -0.3694   -2.7830   31.2327 H   0  0  0  0  0  0  0  0  0  0  0  0
    1.6051   -6.5147   31.6415 H   0  0  0  0  0  0  0  0  0  0  0  0
    1.7998   -5.7112   30.0942 H   0  0  0  0  0  0  0  0  0  0  0  0
    0.3572   -7.6171   29.8121 H   0  0  0  0  0  0  0  0  0  0  0  0
   -0.5870   -6.1487   29.5631 H   0  0  0  0  0  0  0  0  0  0  0  0
   -1.9842   -8.3966   35.0223 H   0  0  0  0  0  0  0  0  0  0  0  0
   -1.0967   -7.0379   35.2545 H   0  0  0  0  0  0  0  0  0  0  0  0
   -1.2208   -4.5411   32.8208 H   0  0  0  0  0  0  0  0  0  0  0  0
   -0.3525   -4.4909   34.8380 H   0  0  0  0  0  0  0  0  0  0  0  0
   -0.0111   -4.8966   36.4385 H   0  0  0  0  0  0  0  0  0  0  0  0
    2.4564   -7.8621   37.3285 H   0  0  0  0  0  0  0  0  0  0  0  0
    0.8191   -6.6450   40.8081 H   0  0  0  0  0  0  0  0  0  0  0  0
   -0.1669   -4.9617   39.1588 H   0  0  0  0  0  0  0  0  0  0  0  0
    2.6341   -4.5144   32.4070 H   0  0  0  0  0  0  0  0  0  0  0  0
    1.6120   -3.1657   32.8146 H   0  0  0  0  0  0  0  0  0  0  0  0
    2.2994   -1.9420   31.1003 H   0  0  0  0  0  0  0  0  0  0  0  0
    3.5926   -3.0977   30.9156 H   0  0  0  0  0  0  0  0  0  0  0  0
  1  2  1  0
  2  3  1  0
  3  4  2  0
  3  5  1  0
  5  6  1  0
  6  7  1  0
  7  8  1  0
  8  9  1  0
  9 10  1  0
 10 11  1  0
 11 12  1  0
 12 13  2  0
 13 14  1  0
 14 15  2  0
 15 16  1  0
 15 17  1  0
 17 18  1  0
 18 19  1  0
 19 20  1  0
 20 21  2  0
 20 22  1  0
 22 23  1  0
 23 24  1  0
 24 25  2  0
 25 26  1  0
 26 27  1  0
  9 28  1  0
 28 29  1  0
 29  6  1  0
 18  9  1  0
 27 23  2  0
 17 12  1  0
  1 30  1  0
  1 31  1  0
  1 32  1  0
  2 33  1  0
  5 34  1  0
  5 35  1  0
  6 36  1  0
  7 37  1  0
  7 38  1  0
  8 39  1  0
  8 40  1  0
 10 41  1  0
 10 42  1  0
 11 43  1  0
 11 44  1  0
 16 45  1  0
 16 46  1  0
 18 47  1  0
 19 48  1  0
 22 49  1  0
 24 50  1  0
 26 51  1  0
 27 52  1  0
 28 53  1  0
 28 54  1  0
 29 55  1  0
 29 56  1  0
M  END
>  <Energy>  (1037) 
-1.5692597806581929

>  <compound_id>  (1037) 
4467

>  <target_id>  (1037) 
1

>  <reference_id>  (1037) 
158

>  <inspiration_ids>  (1037) 
[158, 177]

>  <energy_score>  (1037) 
-32.786341536648706

>  <distance_score>  (1037) 
2.242624237166764

>  <path>  (1037) 
/opt/xchem-fragalysis-2/maxwin/BulkDock/SCRATCH/505735/C4467-P158/C4467-P158.minimised.mol

>  <scratch_subdir>  (1037) 
/opt/xchem-fragalysis-2/maxwin/BulkDock/SCRATCH/505735/C4467-P158

>  <fragmenstein_runtime>  (1037) 
9.148061275482178

>  <fragmenstein_outcome>  (1037) 
too moved

>  <fragmenstein_mode>  (1037) 
expansion

>  <fragmenstein_error>  (1037) 


$$$$
C4467-P177
     RDKit          3D

 56 59  0  0  0  0  0  0  0  0999 V2000
    4.5791   -1.9378   25.5322 C   0  0  0  0  0  0  0  0  0  0  0  0
    3.9684   -2.5345   26.6769 N   0  0  0  0  0  0  0  0  0  0  0  0
    4.5320   -2.7984   28.0924 C   0  0  0  0  0  0  0  0  0  0  0  0
    5.5545   -2.5008   28.5658 O   0  0  0  0  0  0  0  0  0  0  0  0
    3.4517   -3.5473   28.8500 C   0  0  0  0  0  0  0  0  0  0  0  0
    2.3934   -2.5875   29.4231 C   0  0  0  0  0  0  0  0  0  0  0  0
    2.5246   -2.4648   30.9497 C   0  0  0  0  0  0  0  0  0  0  0  0
    1.8618   -3.5441   31.8312 C   0  0  0  0  0  0  0  0  0  0  0  0
    0.6453   -4.2557   31.2153 C   0  0  0  0  0  0  0  0  0  0  0  0
    1.1739   -5.4416   30.4152 C   0  0  0  0  0  0  0  0  0  0  0  0
    0.0652   -6.1814   29.6730 C   0  0  0  0  0  0  0  0  0  0  0  0
   -0.7454   -6.8094   30.7109 C   0  0  0  0  0  0  0  0  0  0  0  0
   -1.3601   -7.9583   30.6482 N   0  0  0  0  0  0  0  0  0  0  0  0
   -1.7612   -8.2545   31.9068 N   0  0  0  0  0  0  0  0  0  0  0  0
   -1.4234   -7.2740   32.7104 C   0  0  0  0  0  0  0  0  0  0  0  0
   -1.6277   -7.3094   34.0441 N   0  0  0  0  0  0  0  0  0  0  0  0
   -0.8703   -6.2554   31.9600 N   0  0  0  0  0  0  0  0  0  0  0  0
   -0.3985   -4.8794   32.2975 C   0  0  0  0  0  0  0  0  0  0  0  0
   -0.1511   -4.8424   33.7279 N   0  0  0  0  0  0  0  0  0  0  0  0
    0.8749   -5.6361   34.5971 C   0  0  0  0  0  0  0  0  0  0  0  0
    1.7034   -6.3602   34.2850 O   0  0  0  0  0  0  0  0  0  0  0  0
    0.3687   -5.2311   36.0255 N   0  0  0  0  0  0  0  0  0  0  0  0
    0.7257   -5.7074   37.2622 C   0  0  0  0  0  0  0  0  0  0  0  0
    1.6004   -6.7562   37.6166 C   0  0  0  0  0  0  0  0  0  0  0  0
    1.5461   -7.0494   38.9201 N   0  0  0  0  0  0  0  0  0  0  0  0
    0.6241   -6.2032   39.4017 N   0  0  0  0  0  0  0  0  0  0  0  0
    0.1108   -5.3662   38.4467 C   0  0  0  0  0  0  0  0  0  0  0  0
    0.0068   -3.2489   30.1955 C   0  0  0  0  0  0  0  0  0  0  0  0
    0.9419   -2.8990   29.0054 C   0  0  0  0  0  0  0  0  0  0  0  0
    4.3874   -0.8664   25.5726 H   0  0  0  0  0  0  0  0  0  0  0  0
    4.1527   -2.3816   24.6328 H   0  0  0  0  0  0  0  0  0  0  0  0
    5.6506   -2.1283   25.5823 H   0  0  0  0  0  0  0  0  0  0  0  0
    3.0791   -3.0047   26.5742 H   0  0  0  0  0  0  0  0  0  0  0  0
    3.0265   -4.2954   28.1716 H   0  0  0  0  0  0  0  0  0  0  0  0
    3.9591   -4.1034   29.6461 H   0  0  0  0  0  0  0  0  0  0  0  0
    2.6128   -1.5868   29.0232 H   0  0  0  0  0  0  0  0  0  0  0  0
    2.0660   -1.5051   31.2306 H   0  0  0  0  0  0  0  0  0  0  0  0
    3.5785   -2.3610   31.2379 H   0  0  0  0  0  0  0  0  0  0  0  0
    1.5619   -3.0457   32.7619 H   0  0  0  0  0  0  0  0  0  0  0  0
    2.6252   -4.2746   32.1289 H   0  0  0  0  0  0  0  0  0  0  0  0
    1.9389   -5.1890   29.6968 H   0  0  0  0  0  0  0  0  0  0  0  0
    1.6606   -6.0741   31.1666 H   0  0  0  0  0  0  0  0  0  0  0  0
    0.4562   -6.9414   28.9901 H   0  0  0  0  0  0  0  0  0  0  0  0
   -0.5261   -5.5260   29.0324 H   0  0  0  0  0  0  0  0  0  0  0  0
   -1.6568   -8.2847   34.3735 H   0  0  0  0  0  0  0  0  0  0  0  0
   -1.0327   -6.7667   34.6495 H   0  0  0  0  0  0  0  0  0  0  0  0
   -1.3136   -4.2838   32.1864 H   0  0  0  0  0  0  0  0  0  0  0  0
   -0.6918   -4.2296   34.3164 H   0  0  0  0  0  0  0  0  0  0  0  0
   -0.3227   -4.5061   35.9470 H   0  0  0  0  0  0  0  0  0  0  0  0
    2.2520   -7.3377   36.9774 H   0  0  0  0  0  0  0  0  0  0  0  0
    0.3931   -6.2548   40.3892 H   0  0  0  0  0  0  0  0  0  0  0  0
   -0.6642   -4.6563   38.6964 H   0  0  0  0  0  0  0  0  0  0  0  0
   -0.2459   -2.3242   30.7327 H   0  0  0  0  0  0  0  0  0  0  0  0
   -0.9502   -3.6154   29.8096 H   0  0  0  0  0  0  0  0  0  0  0  0
    0.9050   -3.6896   28.2479 H   0  0  0  0  0  0  0  0  0  0  0  0
    0.5205   -2.0145   28.5094 H   0  0  0  0  0  0  0  0  0  0  0  0
  1  2  1  0
  2  3  1  0
  3  4  2  0
  3  5  1  0
  5  6  1  0
  6  7  1  0
  7  8  1  0
  8  9  1  0
  9 10  1  0
 10 11  1  0
 11 12  1  0
 12 13  2  0
 13 14  1  0
 14 15  2  0
 15 16  1  0
 15 17  1  0
 17 18  1  0
 18 19  1  0
 19 20  1  0
 20 21  2  0
 20 22  1  0
 22 23  1  0
 23 24  1  0
 24 25  2  0
 25 26  1  0
 26 27  1  0
  9 28  1  0
 28 29  1  0
 29  6  1  0
 18  9  1  0
 27 23  2  0
 17 12  1  0
  1 30  1  0
  1 31  1  0
  1 32  1  0
  2 33  1  0
  5 34  1  0
  5 35  1  0
  6 36  1  0
  7 37  1  0
  7 38  1  0
  8 39  1  0
  8 40  1  0
 10 41  1  0
 10 42  1  0
 11 43  1  0
 11 44  1  0
 16 45  1  0
 16 46  1  0
 18 47  1  0
 19 48  1  0
 22 49  1  0
 24 50  1  0
 26 51  1  0
 27 52  1  0
 28 53  1  0
 28 54  1  0
 29 55  1  0
 29 56  1  0
M  END
>  <Energy>  (1038) 
6.0573457077599961

>  <compound_id>  (1038) 
4467

>  <target_id>  (1038) 
1

>  <reference_id>  (1038) 
177

>  <inspiration_ids>  (1038) 
[158, 177]

>  <energy_score>  (1038) 
-25.159736048228467

>  <distance_score>  (1038) 
2.1877694000138512

>  <path>  (1038) 
/opt/xchem-fragalysis-2/maxwin/BulkDock/SCRATCH/505735/C4467-P177/C4467-P177.minimised.mol

>  <scratch_subdir>  (1038) 
/opt/xchem-fragalysis-2/maxwin/BulkDock/SCRATCH/505735/C4467-P177

>  <fragmenstein_runtime>  (1038) 
8.155102014541626

>  <fragmenstein_outcome>  (1038) 
too moved

>  <fragmenstein_mode>  (1038) 
expansion

>  <fragmenstein_error>  (1038) 


$$$$
C4468-P183
     RDKit          2D

  0  0  0  0  0  0  0  0  0  0999 V2000
M  END
>  <compound_id>  (1039) 
4468

>  <target_id>  (1039) 
1

>  <reference_id>  (1039) 
183

>  <inspiration_ids>  (1039) 
[158, 183]

>  <energy_score>  (1039) 
nan

>  <distance_score>  (1039) 
nan

>  <path>  (1039) 
/opt/xchem-fragalysis-2/maxwin/BulkDock/SCRATCH/505735/C4468-P183/C4468-P183.minimised.mol

>  <scratch_subdir>  (1039) 
/opt/xchem-fragalysis-2/maxwin/BulkDock/SCRATCH/505735/C4468-P183

>  <fragmenstein_runtime>  (1039) 
0.3135519027709961

>  <fragmenstein_outcome>  (1039) 
too distant

>  <fragmenstein_mode>  (1039) 
expansion

>  <fragmenstein_error>  (1039) 
DistanceError: hit0+hit1

$$$$
C4503-P158
     RDKit          3D

 49 52  0  0  0  0  0  0  0  0999 V2000
    0.9302    1.6789   33.4872 C   0  0  0  0  0  0  0  0  0  0  0  0
    0.5778    0.2580   33.2602 N   0  0  0  0  0  0  0  0  0  0  0  0
   -0.4236    0.5507   34.4056 C   0  0  0  0  0  0  0  0  0  0  0  0
   -1.8827    0.5847   33.9798 C   0  0  0  0  0  0  0  0  0  0  0  0
   -2.5642    1.8060   33.8932 C   0  0  0  0  0  0  0  0  0  0  0  0
   -3.9299    1.8333   33.6115 C   0  0  0  0  0  0  0  0  0  0  0  0
   -4.6268    0.6475   33.3888 C   0  0  0  0  0  0  0  0  0  0  0  0
   -3.9651   -0.5724   33.4710 C   0  0  0  0  0  0  0  0  0  0  0  0
   -2.6043   -0.6045   33.7771 C   0  0  0  0  0  0  0  0  0  0  0  0
    1.3249   -0.9633   33.5503 C   0  0  0  0  0  0  0  0  0  0  0  0
    2.3473   -1.1136   34.1145 O   0  0  0  0  0  0  0  0  0  0  0  0
    0.3988   -1.9497   32.9774 N   0  0  0  0  0  0  0  0  0  0  0  0
    0.4125   -3.3131   33.0153 C   0  0  0  0  0  0  0  0  0  0  0  0
    1.0313   -3.9444   34.1711 C   0  0  0  0  0  0  0  0  0  0  0  0
    0.6838   -5.1967   34.5402 C   0  0  0  0  0  0  0  0  0  0  0  0
    1.1393   -5.6110   35.7677 N   0  0  0  0  0  0  0  0  0  0  0  0
    0.6270   -6.6656   36.6937 C   0  0  0  0  0  0  0  0  0  0  0  0
   -0.2404   -7.4396   36.5501 O   0  0  0  0  0  0  0  0  0  0  0  0
    1.5424   -6.4459   37.8589 N   0  0  0  0  0  0  0  0  0  0  0  0
    1.5599   -7.0193   39.0959 C   0  0  0  0  0  0  0  0  0  0  0  0
    2.4283   -6.7890   40.1782 C   0  0  0  0  0  0  0  0  0  0  0  0
    2.1321   -7.5467   41.2396 N   0  0  0  0  0  0  0  0  0  0  0  0
    1.0596   -8.2503   40.8306 N   0  0  0  0  0  0  0  0  0  0  0  0
    0.6928   -7.9749   39.5502 C   0  0  0  0  0  0  0  0  0  0  0  0
   -0.1079   -5.9419   33.6360 N   0  0  0  0  0  0  0  0  0  0  0  0
   -0.5948   -7.2227   33.6097 C   0  0  0  0  0  0  0  0  0  0  0  0
   -1.0756   -7.5160   32.4188 N   0  0  0  0  0  0  0  0  0  0  0  0
   -1.0036   -6.3883   31.6505 N   0  0  0  0  0  0  0  0  0  0  0  0
   -0.4886   -5.4334   32.3916 C   0  0  0  0  0  0  0  0  0  0  0  0
   -0.3081   -4.0464   32.1471 C   0  0  0  0  0  0  0  0  0  0  0  0
    1.6835    1.8755   32.7102 H   0  0  0  0  0  0  0  0  0  0  0  0
    0.1394    2.4075   33.2669 H   0  0  0  0  0  0  0  0  0  0  0  0
    1.4995    1.8532   34.4133 H   0  0  0  0  0  0  0  0  0  0  0  0
   -0.2242    1.3364   35.1608 H   0  0  0  0  0  0  0  0  0  0  0  0
   -0.3596   -0.3333   35.0643 H   0  0  0  0  0  0  0  0  0  0  0  0
   -2.0532    2.7468   34.0823 H   0  0  0  0  0  0  0  0  0  0  0  0
   -4.4617    2.7822   33.5666 H   0  0  0  0  0  0  0  0  0  0  0  0
   -5.6912    0.6825   33.1631 H   0  0  0  0  0  0  0  0  0  0  0  0
   -4.5127   -1.5003   33.3239 H   0  0  0  0  0  0  0  0  0  0  0  0
   -2.1318   -1.5759   33.9028 H   0  0  0  0  0  0  0  0  0  0  0  0
   -0.3449   -1.4633   32.4893 H   0  0  0  0  0  0  0  0  0  0  0  0
    1.6519   -3.3266   34.8120 H   0  0  0  0  0  0  0  0  0  0  0  0
    1.8389   -5.0674   36.2384 H   0  0  0  0  0  0  0  0  0  0  0  0
    2.2249   -5.7558   37.6188 H   0  0  0  0  0  0  0  0  0  0  0  0
    3.2646   -6.1066   40.2463 H   0  0  0  0  0  0  0  0  0  0  0  0
    0.6331   -8.9094   41.4730 H   0  0  0  0  0  0  0  0  0  0  0  0
   -0.1285   -8.4896   39.0760 H   0  0  0  0  0  0  0  0  0  0  0  0
   -0.5638   -7.9140   34.4358 H   0  0  0  0  0  0  0  0  0  0  0  0
   -0.8107   -3.6045   31.2939 H   0  0  0  0  0  0  0  0  0  0  0  0
  1  2  1  0
  2  3  1  0
  3  4  1  0
  4  5  2  0
  5  6  1  0
  6  7  2  0
  7  8  1  0
  8  9  2  0
  2 10  1  0
 10 11  2  0
 10 12  1  0
 12 13  1  0
 13 14  1  0
 14 15  2  0
 15 16  1  0
 16 17  1  0
 17 18  2  0
 17 19  1  0
 19 20  1  0
 20 21  1  0
 21 22  2  0
 22 23  1  0
 23 24  1  0
 15 25  1  0
 25 26  1  0
 26 27  2  0
 27 28  1  0
 28 29  2  0
 29 30  1  0
  9  4  1  0
 30 13  2  0
 24 20  2  0
 29 25  1  0
  1 31  1  0
  1 32  1  0
  1 33  1  0
  3 34  1  0
  3 35  1  0
  5 36  1  0
  6 37  1  0
  7 38  1  0
  8 39  1  0
  9 40  1  0
 12 41  1  0
 14 42  1  0
 16 43  1  0
 19 44  1  0
 21 45  1  0
 23 46  1  0
 24 47  1  0
 26 48  1  0
 30 49  1  0
M  END
>  <Energy>  (1040) 
48.031144636721308

>  <compound_id>  (1040) 
4503

>  <target_id>  (1040) 
1

>  <reference_id>  (1040) 
158

>  <inspiration_ids>  (1040) 
[158, 186]

>  <energy_score>  (1040) 
-0.30383279596317436

>  <distance_score>  (1040) 
2.5349345256268068

>  <path>  (1040) 
/opt/xchem-fragalysis-2/maxwin/BulkDock/SCRATCH/505735/C4503-P158/C4503-P158.minimised.mol

>  <scratch_subdir>  (1040) 
/opt/xchem-fragalysis-2/maxwin/BulkDock/SCRATCH/505735/C4503-P158

>  <fragmenstein_runtime>  (1040) 
19.36595058441162

>  <fragmenstein_outcome>  (1040) 
too moved

>  <fragmenstein_mode>  (1040) 
expansion

>  <fragmenstein_error>  (1040) 


$$$$
C4503-P186
     RDKit          3D

 49 52  0  0  0  0  0  0  0  0999 V2000
    1.7134    0.5572   29.9661 C   0  0  0  0  0  0  0  0  0  0  0  0
    1.2530   -0.8356   30.1655 N   0  0  0  0  0  0  0  0  0  0  0  0
   -0.1405   -0.1401   30.1673 C   0  0  0  0  0  0  0  0  0  0  0  0
   -0.9308   -0.1795   31.4785 C   0  0  0  0  0  0  0  0  0  0  0  0
   -0.6668    0.7129   32.5267 C   0  0  0  0  0  0  0  0  0  0  0  0
   -1.4002    0.6540   33.7153 C   0  0  0  0  0  0  0  0  0  0  0  0
   -2.4052   -0.2970   33.8736 C   0  0  0  0  0  0  0  0  0  0  0  0
   -2.6757   -1.1958   32.8466 C   0  0  0  0  0  0  0  0  0  0  0  0
   -1.9455   -1.1362   31.6582 C   0  0  0  0  0  0  0  0  0  0  0  0
    1.3755   -1.7207   31.3251 C   0  0  0  0  0  0  0  0  0  0  0  0
    1.7912   -1.5055   32.4062 O   0  0  0  0  0  0  0  0  0  0  0  0
    0.7865   -2.9441   30.7545 N   0  0  0  0  0  0  0  0  0  0  0  0
    0.4734   -4.1387   31.3357 C   0  0  0  0  0  0  0  0  0  0  0  0
    0.4707   -4.2464   32.7881 C   0  0  0  0  0  0  0  0  0  0  0  0
    0.1031   -5.3902   33.4015 C   0  0  0  0  0  0  0  0  0  0  0  0
    0.1259   -5.4125   34.7708 N   0  0  0  0  0  0  0  0  0  0  0  0
    0.3875   -6.5362   35.7268 C   0  0  0  0  0  0  0  0  0  0  0  0
    0.5580   -7.6797   35.5221 O   0  0  0  0  0  0  0  0  0  0  0  0
    0.3315   -5.7844   37.0201 N   0  0  0  0  0  0  0  0  0  0  0  0
    0.3725   -6.2275   38.3093 C   0  0  0  0  0  0  0  0  0  0  0  0
    0.5735   -7.5211   38.8280 C   0  0  0  0  0  0  0  0  0  0  0  0
    0.5299   -7.5352   40.1641 N   0  0  0  0  0  0  0  0  0  0  0  0
    0.2897   -6.2593   40.4925 N   0  0  0  0  0  0  0  0  0  0  0  0
    0.2063   -5.4275   39.4127 C   0  0  0  0  0  0  0  0  0  0  0  0
   -0.3193   -6.4587   32.5894 N   0  0  0  0  0  0  0  0  0  0  0  0
   -0.9108   -7.6638   32.8585 C   0  0  0  0  0  0  0  0  0  0  0  0
   -1.2147   -8.2928   31.7423 N   0  0  0  0  0  0  0  0  0  0  0  0
   -0.8335   -7.4977   30.6942 N   0  0  0  0  0  0  0  0  0  0  0  0
   -0.3272   -6.3926   31.1984 C   0  0  0  0  0  0  0  0  0  0  0  0
    0.0976   -5.1872   30.5794 C   0  0  0  0  0  0  0  0  0  0  0  0
    1.5194    1.2526   30.7917 H   0  0  0  0  0  0  0  0  0  0  0  0
    2.8092    0.4648   29.9899 H   0  0  0  0  0  0  0  0  0  0  0  0
    1.5091    0.9463   28.9577 H   0  0  0  0  0  0  0  0  0  0  0  0
   -0.6913   -0.8000   29.4758 H   0  0  0  0  0  0  0  0  0  0  0  0
   -0.3106    0.8360   29.6735 H   0  0  0  0  0  0  0  0  0  0  0  0
    0.1181    1.4588   32.4431 H   0  0  0  0  0  0  0  0  0  0  0  0
   -1.1786    1.3475   34.5228 H   0  0  0  0  0  0  0  0  0  0  0  0
   -2.9701   -0.3450   34.8011 H   0  0  0  0  0  0  0  0  0  0  0  0
   -3.4493   -1.9491   32.9762 H   0  0  0  0  0  0  0  0  0  0  0  0
   -2.1644   -1.8574   30.8741 H   0  0  0  0  0  0  0  0  0  0  0  0
    0.6134   -2.8003   29.7667 H   0  0  0  0  0  0  0  0  0  0  0  0
    0.7773   -3.3834   33.3698 H   0  0  0  0  0  0  0  0  0  0  0  0
    0.1106   -4.5440   35.2748 H   0  0  0  0  0  0  0  0  0  0  0  0
    0.2516   -4.8052   36.8313 H   0  0  0  0  0  0  0  0  0  0  0  0
    0.7467   -8.4491   38.2979 H   0  0  0  0  0  0  0  0  0  0  0  0
    0.1968   -6.0282   41.4763 H   0  0  0  0  0  0  0  0  0  0  0  0
    0.0188   -4.3717   39.5371 H   0  0  0  0  0  0  0  0  0  0  0  0
   -1.1195   -8.0248   33.8539 H   0  0  0  0  0  0  0  0  0  0  0  0
    0.0635   -5.1292   29.4978 H   0  0  0  0  0  0  0  0  0  0  0  0
  1  2  1  0
  2  3  1  0
  3  4  1  0
  4  5  2  0
  5  6  1  0
  6  7  2  0
  7  8  1  0
  8  9  2  0
  2 10  1  0
 10 11  2  0
 10 12  1  0
 12 13  1  0
 13 14  1  0
 14 15  2  0
 15 16  1  0
 16 17  1  0
 17 18  2  0
 17 19  1  0
 19 20  1  0
 20 21  1  0
 21 22  2  0
 22 23  1  0
 23 24  1  0
 15 25  1  0
 25 26  1  0
 26 27  2  0
 27 28  1  0
 28 29  2  0
 29 30  1  0
  9  4  1  0
 30 13  2  0
 24 20  2  0
 29 25  1  0
  1 31  1  0
  1 32  1  0
  1 33  1  0
  3 34  1  0
  3 35  1  0
  5 36  1  0
  6 37  1  0
  7 38  1  0
  8 39  1  0
  9 40  1  0
 12 41  1  0
 14 42  1  0
 16 43  1  0
 19 44  1  0
 21 45  1  0
 23 46  1  0
 24 47  1  0
 26 48  1  0
 30 49  1  0
M  END
>  <Energy>  (1041) 
47.142494903625938

>  <compound_id>  (1041) 
4503

>  <target_id>  (1041) 
1

>  <reference_id>  (1041) 
186

>  <inspiration_ids>  (1041) 
[158, 186]

>  <energy_score>  (1041) 
-1.1924825290588643

>  <distance_score>  (1041) 
1.7507212960832963

>  <path>  (1041) 
/opt/xchem-fragalysis-2/maxwin/BulkDock/SCRATCH/505735/C4503-P186/C4503-P186.minimised.mol

>  <scratch_subdir>  (1041) 
/opt/xchem-fragalysis-2/maxwin/BulkDock/SCRATCH/505735/C4503-P186

>  <fragmenstein_runtime>  (1041) 
30.275253772735596

>  <fragmenstein_outcome>  (1041) 
too moved

>  <fragmenstein_mode>  (1041) 
expansion

>  <fragmenstein_error>  (1041) 


$$$$
C4503-P158
     RDKit          3D

 49 52  0  0  0  0  0  0  0  0999 V2000
   -0.9828    2.2516   34.4315 C   0  0  0  0  0  0  0  0  0  0  0  0
   -1.1521    0.8087   34.1337 N   0  0  0  0  0  0  0  0  0  0  0  0
   -2.5072    1.0470   34.8535 C   0  0  0  0  0  0  0  0  0  0  0  0
   -3.6439    0.1750   34.3377 C   0  0  0  0  0  0  0  0  0  0  0  0
   -4.5366    0.6913   33.3876 C   0  0  0  0  0  0  0  0  0  0  0  0
   -5.6553   -0.0387   32.9845 C   0  0  0  0  0  0  0  0  0  0  0  0
   -5.8910   -1.2994   33.5136 C   0  0  0  0  0  0  0  0  0  0  0  0
   -5.0132   -1.8218   34.4569 C   0  0  0  0  0  0  0  0  0  0  0  0
   -3.8975   -1.0928   34.8718 C   0  0  0  0  0  0  0  0  0  0  0  0
   -0.4772   -0.3693   34.7024 C   0  0  0  0  0  0  0  0  0  0  0  0
    0.2920   -0.4477   35.5897 O   0  0  0  0  0  0  0  0  0  0  0  0
   -0.9715   -1.4057   33.7716 N   0  0  0  0  0  0  0  0  0  0  0  0
   -0.7464   -2.7565   33.7349 C   0  0  0  0  0  0  0  0  0  0  0  0
   -0.3573   -3.4121   34.9766 C   0  0  0  0  0  0  0  0  0  0  0  0
   -0.1831   -4.7481   35.0474 C   0  0  0  0  0  0  0  0  0  0  0  0
    0.1099   -5.2670   36.2810 N   0  0  0  0  0  0  0  0  0  0  0  0
    0.8043   -6.5356   36.6694 C   0  0  0  0  0  0  0  0  0  0  0  0
    1.3307   -7.3480   36.0011 O   0  0  0  0  0  0  0  0  0  0  0  0
    0.6410   -6.4641   38.1564 N   0  0  0  0  0  0  0  0  0  0  0  0
    1.1296   -7.2648   39.1433 C   0  0  0  0  0  0  0  0  0  0  0  0
    2.0276   -8.3427   39.0795 C   0  0  0  0  0  0  0  0  0  0  0  0
    2.2829   -8.8636   40.2859 N   0  0  0  0  0  0  0  0  0  0  0  0
    1.5103   -8.1326   41.1084 N   0  0  0  0  0  0  0  0  0  0  0  0
    0.8202   -7.1397   40.4739 C   0  0  0  0  0  0  0  0  0  0  0  0
   -0.3673   -5.4895   33.8678 N   0  0  0  0  0  0  0  0  0  0  0  0
   -0.4212   -6.8327   33.5987 C   0  0  0  0  0  0  0  0  0  0  0  0
   -0.6025   -7.0414   32.3118 N   0  0  0  0  0  0  0  0  0  0  0  0
   -0.7565   -5.8177   31.7093 N   0  0  0  0  0  0  0  0  0  0  0  0
   -0.6763   -4.8942   32.6444 C   0  0  0  0  0  0  0  0  0  0  0  0
   -0.9019   -3.4857   32.6111 C   0  0  0  0  0  0  0  0  0  0  0  0
   -0.9627    2.5122   35.5016 H   0  0  0  0  0  0  0  0  0  0  0  0
   -1.5859    2.9074   33.7868 H   0  0  0  0  0  0  0  0  0  0  0  0
    0.0507    2.4560   34.1161 H   0  0  0  0  0  0  0  0  0  0  0  0
   -2.9662    2.0545   34.8353 H   0  0  0  0  0  0  0  0  0  0  0  0
   -2.3638    0.7973   35.9187 H   0  0  0  0  0  0  0  0  0  0  0  0
   -4.4085    1.6971   32.9961 H   0  0  0  0  0  0  0  0  0  0  0  0
   -6.3579    0.3903   32.2736 H   0  0  0  0  0  0  0  0  0  0  0  0
   -6.7667   -1.8597   33.2004 H   0  0  0  0  0  0  0  0  0  0  0  0
   -5.2013   -2.8003   34.8811 H   0  0  0  0  0  0  0  0  0  0  0  0
   -3.2391   -1.5216   35.6241 H   0  0  0  0  0  0  0  0  0  0  0  0
   -1.5654   -0.9713   33.0750 H   0  0  0  0  0  0  0  0  0  0  0  0
   -0.2403   -2.7948   35.8610 H   0  0  0  0  0  0  0  0  0  0  0  0
   -0.1536   -4.7658   37.1089 H   0  0  0  0  0  0  0  0  0  0  0  0
    0.0683   -5.6779   38.3897 H   0  0  0  0  0  0  0  0  0  0  0  0
    2.5151   -8.7569   38.2081 H   0  0  0  0  0  0  0  0  0  0  0  0
    1.5140   -8.3596   42.0970 H   0  0  0  0  0  0  0  0  0  0  0  0
    0.1756   -6.4681   41.0211 H   0  0  0  0  0  0  0  0  0  0  0  0
   -0.3475   -7.6023   34.3524 H   0  0  0  0  0  0  0  0  0  0  0  0
   -1.1890   -3.0346   31.6681 H   0  0  0  0  0  0  0  0  0  0  0  0
  1  2  1  0
  2  3  1  0
  3  4  1  0
  4  5  2  0
  5  6  1  0
  6  7  2  0
  7  8  1  0
  8  9  2  0
  2 10  1  0
 10 11  2  0
 10 12  1  0
 12 13  1  0
 13 14  1  0
 14 15  2  0
 15 16  1  0
 16 17  1  0
 17 18  2  0
 17 19  1  0
 19 20  1  0
 20 21  1  0
 21 22  2  0
 22 23  1  0
 23 24  1  0
 15 25  1  0
 25 26  1  0
 26 27  2  0
 27 28  1  0
 28 29  2  0
 29 30  1  0
  9  4  1  0
 30 13  2  0
 24 20  2  0
 29 25  1  0
  1 31  1  0
  1 32  1  0
  1 33  1  0
  3 34  1  0
  3 35  1  0
  5 36  1  0
  6 37  1  0
  7 38  1  0
  8 39  1  0
  9 40  1  0
 12 41  1  0
 14 42  1  0
 16 43  1  0
 19 44  1  0
 21 45  1  0
 23 46  1  0
 24 47  1  0
 26 48  1  0
 30 49  1  0
M  END
>  <Energy>  (1042) 
42.868945402315681

>  <compound_id>  (1042) 
4503

>  <target_id>  (1042) 
1

>  <reference_id>  (1042) 
158

>  <inspiration_ids>  (1042) 
[158, 187]

>  <energy_score>  (1042) 
-5.466032030367984

>  <distance_score>  (1042) 
2.9237484914123217

>  <path>  (1042) 
/opt/xchem-fragalysis-2/maxwin/BulkDock/SCRATCH/505735/C4503-P158/C4503-P158.minimised.mol

>  <scratch_subdir>  (1042) 
/opt/xchem-fragalysis-2/maxwin/BulkDock/SCRATCH/505735/C4503-P158

>  <fragmenstein_runtime>  (1042) 
23.136760711669922

>  <fragmenstein_outcome>  (1042) 
too moved

>  <fragmenstein_mode>  (1042) 
expansion

>  <fragmenstein_error>  (1042) 


$$$$
C4503-P187
     RDKit          3D

 49 52  0  0  0  0  0  0  0  0999 V2000
    1.6887    0.6015   29.8964 C   0  0  0  0  0  0  0  0  0  0  0  0
    1.2461   -0.7961   30.0964 N   0  0  0  0  0  0  0  0  0  0  0  0
   -0.1568   -0.1125   30.1288 C   0  0  0  0  0  0  0  0  0  0  0  0
   -0.9545   -0.2564   31.4267 C   0  0  0  0  0  0  0  0  0  0  0  0
   -0.6321    0.4837   32.5729 C   0  0  0  0  0  0  0  0  0  0  0  0
   -1.3616    0.3205   33.7537 C   0  0  0  0  0  0  0  0  0  0  0  0
   -2.4265   -0.5759   33.8016 C   0  0  0  0  0  0  0  0  0  0  0  0
   -2.7606   -1.3163   32.6715 C   0  0  0  0  0  0  0  0  0  0  0  0
   -2.0302   -1.1576   31.4926 C   0  0  0  0  0  0  0  0  0  0  0  0
    1.4000   -1.6871   31.2490 C   0  0  0  0  0  0  0  0  0  0  0  0
    1.8346   -1.4740   32.3233 O   0  0  0  0  0  0  0  0  0  0  0  0
    0.8072   -2.9088   30.6850 N   0  0  0  0  0  0  0  0  0  0  0  0
    0.5104   -4.1072   31.2664 C   0  0  0  0  0  0  0  0  0  0  0  0
    0.5262   -4.2340   32.7176 C   0  0  0  0  0  0  0  0  0  0  0  0
    0.1922   -5.3969   33.3156 C   0  0  0  0  0  0  0  0  0  0  0  0
    0.2322   -5.4495   34.6819 N   0  0  0  0  0  0  0  0  0  0  0  0
    0.4975   -6.5952   35.6090 C   0  0  0  0  0  0  0  0  0  0  0  0
    0.8102   -7.7017   35.3736 O   0  0  0  0  0  0  0  0  0  0  0  0
    0.2092   -5.9310   36.9191 N   0  0  0  0  0  0  0  0  0  0  0  0
    0.3164   -6.3985   38.1964 C   0  0  0  0  0  0  0  0  0  0  0  0
    0.7407   -7.6528   38.6782 C   0  0  0  0  0  0  0  0  0  0  0  0
    0.7144   -7.7123   40.0155 N   0  0  0  0  0  0  0  0  0  0  0  0
    0.2275   -6.5154   40.3760 N   0  0  0  0  0  0  0  0  0  0  0  0
   -0.0117   -5.6826   39.3206 C   0  0  0  0  0  0  0  0  0  0  0  0
   -0.2218   -6.4629   32.4932 N   0  0  0  0  0  0  0  0  0  0  0  0
   -0.7872   -7.6845   32.7498 C   0  0  0  0  0  0  0  0  0  0  0  0
   -1.1012   -8.2955   31.6255 N   0  0  0  0  0  0  0  0  0  0  0  0
   -0.7495   -7.4756   30.5867 N   0  0  0  0  0  0  0  0  0  0  0  0
   -0.2569   -6.3716   31.1049 C   0  0  0  0  0  0  0  0  0  0  0  0
    0.1355   -5.1491   30.5020 C   0  0  0  0  0  0  0  0  0  0  0  0
    1.5040    1.2850   30.7363 H   0  0  0  0  0  0  0  0  0  0  0  0
    1.4520    0.9971   28.8976 H   0  0  0  0  0  0  0  0  0  0  0  0
    2.7855    0.5216   29.8920 H   0  0  0  0  0  0  0  0  0  0  0  0
   -0.6899   -0.7207   29.3788 H   0  0  0  0  0  0  0  0  0  0  0  0
   -0.3337    0.9036   29.7260 H   0  0  0  0  0  0  0  0  0  0  0  0
    0.2063    1.1747   32.5715 H   0  0  0  0  0  0  0  0  0  0  0  0
   -1.0909    0.8892   34.6396 H   0  0  0  0  0  0  0  0  0  0  0  0
   -2.9910   -0.7059   34.7212 H   0  0  0  0  0  0  0  0  0  0  0  0
   -3.5857   -2.0232   32.7131 H   0  0  0  0  0  0  0  0  0  0  0  0
   -2.2965   -1.7558   30.6241 H   0  0  0  0  0  0  0  0  0  0  0  0
    0.6154   -2.7615   29.7012 H   0  0  0  0  0  0  0  0  0  0  0  0
    0.8234   -3.3739   33.3086 H   0  0  0  0  0  0  0  0  0  0  0  0
    0.0674   -4.6177   35.2199 H   0  0  0  0  0  0  0  0  0  0  0  0
   -0.1101   -4.9972   36.7544 H   0  0  0  0  0  0  0  0  0  0  0  0
    1.0608   -8.5205   38.1150 H   0  0  0  0  0  0  0  0  0  0  0  0
    0.0853   -6.3337   41.3639 H   0  0  0  0  0  0  0  0  0  0  0  0
   -0.4012   -4.6873   39.4732 H   0  0  0  0  0  0  0  0  0  0  0  0
   -0.9694   -8.0717   33.7419 H   0  0  0  0  0  0  0  0  0  0  0  0
    0.0822   -5.0712   29.4240 H   0  0  0  0  0  0  0  0  0  0  0  0
  1  2  1  0
  2  3  1  0
  3  4  1  0
  4  5  2  0
  5  6  1  0
  6  7  2  0
  7  8  1  0
  8  9  2  0
  2 10  1  0
 10 11  2  0
 10 12  1  0
 12 13  1  0
 13 14  1  0
 14 15  2  0
 15 16  1  0
 16 17  1  0
 17 18  2  0
 17 19  1  0
 19 20  1  0
 20 21  1  0
 21 22  2  0
 22 23  1  0
 23 24  1  0
 15 25  1  0
 25 26  1  0
 26 27  2  0
 27 28  1  0
 28 29  2  0
 29 30  1  0
  9  4  1  0
 30 13  2  0
 24 20  2  0
 29 25  1  0
  1 31  1  0
  1 32  1  0
  1 33  1  0
  3 34  1  0
  3 35  1  0
  5 36  1  0
  6 37  1  0
  7 38  1  0
  8 39  1  0
  9 40  1  0
 12 41  1  0
 14 42  1  0
 16 43  1  0
 19 44  1  0
 21 45  1  0
 23 46  1  0
 24 47  1  0
 26 48  1  0
 30 49  1  0
M  END
>  <Energy>  (1043) 
48.45257407549353

>  <compound_id>  (1043) 
4503

>  <target_id>  (1043) 
1

>  <reference_id>  (1043) 
187

>  <inspiration_ids>  (1043) 
[158, 187]

>  <energy_score>  (1043) 
0.11759664280813809

>  <distance_score>  (1043) 
1.7090006315724164

>  <path>  (1043) 
/opt/xchem-fragalysis-2/maxwin/BulkDock/SCRATCH/505735/C4503-P187/C4503-P187.minimised.mol

>  <scratch_subdir>  (1043) 
/opt/xchem-fragalysis-2/maxwin/BulkDock/SCRATCH/505735/C4503-P187

>  <fragmenstein_runtime>  (1043) 
24.456217765808105

>  <fragmenstein_outcome>  (1043) 
too moved

>  <fragmenstein_mode>  (1043) 
expansion

>  <fragmenstein_error>  (1043) 


$$$$
C4471-P158
     RDKit          3D

 54 57  0  0  0  0  0  0  0  0999 V2000
    1.9885    0.5429   30.0538 C   0  0  0  0  0  0  0  0  0  0  0  0
    1.1008   -0.5648   29.9757 O   0  0  0  0  0  0  0  0  0  0  0  0
   -0.1797   -0.3197   30.5621 C   0  0  0  0  0  0  0  0  0  0  0  0
   -0.0965   -0.5533   32.0591 C   0  0  0  0  0  0  0  0  0  0  0  0
    0.4486   -1.9529   32.3994 C   0  0  0  0  0  0  0  0  0  0  0  0
   -0.1225   -3.1614   31.5964 C   0  0  0  0  0  0  0  0  0  0  0  0
    0.9050   -3.6623   30.5070 C   0  0  0  0  0  0  0  0  0  0  0  0
    0.4805   -4.9589   29.7888 C   0  0  0  0  0  0  0  0  0  0  0  0
   -0.1662   -5.9922   30.6472 C   0  0  0  0  0  0  0  0  0  0  0  0
   -0.5615   -7.2040   30.3151 N   0  0  0  0  0  0  0  0  0  0  0  0
   -1.1747   -7.7642   31.4084 N   0  0  0  0  0  0  0  0  0  0  0  0
   -1.0973   -6.9104   32.4041 C   0  0  0  0  0  0  0  0  0  0  0  0
   -1.4986   -7.1481   33.6677 N   0  0  0  0  0  0  0  0  0  0  0  0
   -0.5487   -5.7370   31.9364 N   0  0  0  0  0  0  0  0  0  0  0  0
   -0.1638   -4.4768   32.5790 C   0  0  0  0  0  0  0  0  0  0  0  0
   -0.3422   -4.4963   34.0133 N   0  0  0  0  0  0  0  0  0  0  0  0
    0.5870   -5.0640   35.1435 C   0  0  0  0  0  0  0  0  0  0  0  0
    1.6340   -5.5130   35.0787 O   0  0  0  0  0  0  0  0  0  0  0  0
   -0.3778   -4.9305   36.3631 N   0  0  0  0  0  0  0  0  0  0  0  0
   -0.2552   -5.3982   37.6482 C   0  0  0  0  0  0  0  0  0  0  0  0
    0.6905   -6.3379   38.1382 C   0  0  0  0  0  0  0  0  0  0  0  0
    0.4935   -6.6477   39.4241 N   0  0  0  0  0  0  0  0  0  0  0  0
   -0.5769   -5.9094   39.7580 N   0  0  0  0  0  0  0  0  0  0  0  0
   -1.0433   -5.1253   38.7341 C   0  0  0  0  0  0  0  0  0  0  0  0
   -1.3958   -2.6559   30.8051 C   0  0  0  0  0  0  0  0  0  0  0  0
   -1.2689   -1.2688   30.0150 C   0  0  0  0  0  0  0  0  0  0  0  0
   -1.2872   -1.4639   28.5964 O   0  0  0  0  0  0  0  0  0  0  0  0
   -0.8493   -0.3950   27.7755 C   0  0  0  0  0  0  0  0  0  0  0  0
    2.2167    0.7915   31.0934 H   0  0  0  0  0  0  0  0  0  0  0  0
    1.5637    1.4115   29.5416 H   0  0  0  0  0  0  0  0  0  0  0  0
    2.9207    0.2678   29.5530 H   0  0  0  0  0  0  0  0  0  0  0  0
   -0.4798    0.7149   30.3534 H   0  0  0  0  0  0  0  0  0  0  0  0
   -1.0842   -0.4189   32.5184 H   0  0  0  0  0  0  0  0  0  0  0  0
    0.5594    0.1882   32.5296 H   0  0  0  0  0  0  0  0  0  0  0  0
    0.2559   -2.0909   33.4696 H   0  0  0  0  0  0  0  0  0  0  0  0
    1.5423   -1.9376   32.3064 H   0  0  0  0  0  0  0  0  0  0  0  0
    1.8876   -3.8267   30.9712 H   0  0  0  0  0  0  0  0  0  0  0  0
    1.0782   -2.9052   29.7386 H   0  0  0  0  0  0  0  0  0  0  0  0
   -0.2249   -4.6819   28.9996 H   0  0  0  0  0  0  0  0  0  0  0  0
    1.3637   -5.3905   29.3050 H   0  0  0  0  0  0  0  0  0  0  0  0
   -1.6945   -8.1389   33.8473 H   0  0  0  0  0  0  0  0  0  0  0  0
   -0.9185   -6.7994   34.4217 H   0  0  0  0  0  0  0  0  0  0  0  0
    0.9220   -4.6734   32.6343 H   0  0  0  0  0  0  0  0  0  0  0  0
   -1.2422   -4.2498   34.4035 H   0  0  0  0  0  0  0  0  0  0  0  0
   -1.1951   -4.4096   36.0931 H   0  0  0  0  0  0  0  0  0  0  0  0
    1.4963   -6.8215   37.6002 H   0  0  0  0  0  0  0  0  0  0  0  0
   -0.9405   -5.9834   40.7027 H   0  0  0  0  0  0  0  0  0  0  0  0
   -1.8880   -4.4720   38.8877 H   0  0  0  0  0  0  0  0  0  0  0  0
   -2.1951   -2.5374   31.5496 H   0  0  0  0  0  0  0  0  0  0  0  0
   -1.7415   -3.4132   30.1036 H   0  0  0  0  0  0  0  0  0  0  0  0
   -2.2173   -0.7649   30.2349 H   0  0  0  0  0  0  0  0  0  0  0  0
   -1.2558   -0.5449   26.7741 H   0  0  0  0  0  0  0  0  0  0  0  0
    0.2392   -0.4018   27.6866 H   0  0  0  0  0  0  0  0  0  0  0  0
   -1.1970    0.5745   28.1423 H   0  0  0  0  0  0  0  0  0  0  0  0
  1  2  1  0
  2  3  1  0
  3  4  1  0
  4  5  1  0
  5  6  1  0
  6  7  1  0
  7  8  1  0
  8  9  1  0
  9 10  2  0
 10 11  1  0
 11 12  2  0
 12 13  1  0
 12 14  1  0
 14 15  1  0
 15 16  1  0
 16 17  1  0
 17 18  2  0
 17 19  1  0
 19 20  1  0
 20 21  1  0
 21 22  2  0
 22 23  1  0
 23 24  1  0
  6 25  1  0
 25 26  1  0
 26 27  1  0
 27 28  1  0
 26  3  1  0
 15  6  1  0
 24 20  2  0
 14  9  1  0
  1 29  1  0
  1 30  1  0
  1 31  1  0
  3 32  1  0
  4 33  1  0
  4 34  1  0
  5 35  1  0
  5 36  1  0
  7 37  1  0
  7 38  1  0
  8 39  1  0
  8 40  1  0
 13 41  1  0
 13 42  1  0
 15 43  1  0
 16 44  1  0
 19 45  1  0
 21 46  1  0
 23 47  1  0
 24 48  1  0
 25 49  1  0
 25 50  1  0
 26 51  1  0
 28 52  1  0
 28 53  1  0
 28 54  1  0
M  END
>  <Energy>  (1044) 
45.857170419729457

>  <compound_id>  (1044) 
4471

>  <target_id>  (1044) 
1

>  <reference_id>  (1044) 
158

>  <inspiration_ids>  (1044) 
[158, 188]

>  <energy_score>  (1044) 
-6.612959277433333

>  <distance_score>  (1044) 
2.1713458342919587

>  <path>  (1044) 
/opt/xchem-fragalysis-2/maxwin/BulkDock/SCRATCH/505735/C4471-P158/C4471-P158.minimised.mol

>  <scratch_subdir>  (1044) 
/opt/xchem-fragalysis-2/maxwin/BulkDock/SCRATCH/505735/C4471-P158

>  <fragmenstein_runtime>  (1044) 
4.830332279205322

>  <fragmenstein_outcome>  (1044) 
too moved

>  <fragmenstein_mode>  (1044) 
expansion

>  <fragmenstein_error>  (1044) 


$$$$
C4471-P188
     RDKit          3D

 54 57  0  0  0  0  0  0  0  0999 V2000
    1.6114   -0.3243   28.7250 C   0  0  0  0  0  0  0  0  0  0  0  0
    1.2374   -0.6914   30.0390 O   0  0  0  0  0  0  0  0  0  0  0  0
   -0.0838   -0.3253   30.4467 C   0  0  0  0  0  0  0  0  0  0  0  0
   -0.0656   -0.4999   31.9551 C   0  0  0  0  0  0  0  0  0  0  0  0
    0.3698   -1.9217   32.3714 C   0  0  0  0  0  0  0  0  0  0  0  0
   -0.1737   -3.1299   31.5472 C   0  0  0  0  0  0  0  0  0  0  0  0
    0.8707   -3.6688   30.4904 C   0  0  0  0  0  0  0  0  0  0  0  0
    0.4272   -4.9649   29.7813 C   0  0  0  0  0  0  0  0  0  0  0  0
   -0.2583   -5.9742   30.6346 C   0  0  0  0  0  0  0  0  0  0  0  0
   -0.6674   -7.1829   30.3082 N   0  0  0  0  0  0  0  0  0  0  0  0
   -1.2509   -7.7432   31.4175 N   0  0  0  0  0  0  0  0  0  0  0  0
   -1.1309   -6.8951   32.4145 C   0  0  0  0  0  0  0  0  0  0  0  0
   -1.4192   -7.1602   33.7065 N   0  0  0  0  0  0  0  0  0  0  0  0
   -0.6349   -5.7078   31.9233 N   0  0  0  0  0  0  0  0  0  0  0  0
   -0.2435   -4.4408   32.5496 C   0  0  0  0  0  0  0  0  0  0  0  0
   -0.3831   -4.4392   33.9902 N   0  0  0  0  0  0  0  0  0  0  0  0
    0.5651   -5.0152   35.1031 C   0  0  0  0  0  0  0  0  0  0  0  0
    1.6000   -5.4890   35.0153 O   0  0  0  0  0  0  0  0  0  0  0  0
   -0.3632   -4.8451   36.3482 N   0  0  0  0  0  0  0  0  0  0  0  0
   -0.2153   -5.3006   37.6360 C   0  0  0  0  0  0  0  0  0  0  0  0
    0.7734   -6.1938   38.1279 C   0  0  0  0  0  0  0  0  0  0  0  0
    0.5907   -6.5120   39.4140 N   0  0  0  0  0  0  0  0  0  0  0  0
   -0.5082   -5.8172   39.7488 N   0  0  0  0  0  0  0  0  0  0  0  0
   -1.0174   -5.0666   38.7207 C   0  0  0  0  0  0  0  0  0  0  0  0
   -1.4098   -2.6114   30.6942 C   0  0  0  0  0  0  0  0  0  0  0  0
   -1.2642   -1.1901   29.9470 C   0  0  0  0  0  0  0  0  0  0  0  0
   -1.3496   -1.2847   28.5209 O   0  0  0  0  0  0  0  0  0  0  0  0
   -1.5280   -0.0527   27.8320 C   0  0  0  0  0  0  0  0  0  0  0  0
    2.6943   -0.4512   28.6361 H   0  0  0  0  0  0  0  0  0  0  0  0
    1.3773    0.7245   28.5238 H   0  0  0  0  0  0  0  0  0  0  0  0
    1.1473   -0.9889   27.9950 H   0  0  0  0  0  0  0  0  0  0  0  0
   -0.2489    0.7299   30.1996 H   0  0  0  0  0  0  0  0  0  0  0  0
   -1.0497   -0.2697   32.3829 H   0  0  0  0  0  0  0  0  0  0  0  0
    0.6409    0.2100   32.4039 H   0  0  0  0  0  0  0  0  0  0  0  0
    0.0632   -2.0200   33.4193 H   0  0  0  0  0  0  0  0  0  0  0  0
    1.4667   -1.9655   32.3889 H   0  0  0  0  0  0  0  0  0  0  0  0
    1.8428   -3.8393   30.9731 H   0  0  0  0  0  0  0  0  0  0  0  0
    1.0666   -2.9400   29.7041 H   0  0  0  0  0  0  0  0  0  0  0  0
   -0.2607   -4.6730   28.9839 H   0  0  0  0  0  0  0  0  0  0  0  0
    1.3036   -5.4224   29.3086 H   0  0  0  0  0  0  0  0  0  0  0  0
   -1.6038   -8.1609   33.8610 H   0  0  0  0  0  0  0  0  0  0  0  0
   -0.7096   -6.9004   34.3832 H   0  0  0  0  0  0  0  0  0  0  0  0
    0.8401   -4.6508   32.5984 H   0  0  0  0  0  0  0  0  0  0  0  0
   -1.2644   -4.1680   34.4006 H   0  0  0  0  0  0  0  0  0  0  0  0
   -1.2451   -4.4559   36.0624 H   0  0  0  0  0  0  0  0  0  0  0  0
    1.6002   -6.6401   37.5898 H   0  0  0  0  0  0  0  0  0  0  0  0
   -0.8626   -5.8992   40.6962 H   0  0  0  0  0  0  0  0  0  0  0  0
   -1.8959   -4.4581   38.8696 H   0  0  0  0  0  0  0  0  0  0  0  0
   -2.2432   -2.5136   31.4038 H   0  0  0  0  0  0  0  0  0  0  0  0
   -1.7265   -3.3550   29.9617 H   0  0  0  0  0  0  0  0  0  0  0  0
   -2.1780   -0.6590   30.2515 H   0  0  0  0  0  0  0  0  0  0  0  0
   -2.1747   -0.2269   26.9710 H   0  0  0  0  0  0  0  0  0  0  0  0
   -0.5778    0.3110   27.4425 H   0  0  0  0  0  0  0  0  0  0  0  0
   -1.9665    0.7243   28.4639 H   0  0  0  0  0  0  0  0  0  0  0  0
  1  2  1  0
  2  3  1  0
  3  4  1  0
  4  5  1  0
  5  6  1  0
  6  7  1  0
  7  8  1  0
  8  9  1  0
  9 10  2  0
 10 11  1  0
 11 12  2  0
 12 13  1  0
 12 14  1  0
 14 15  1  0
 15 16  1  0
 16 17  1  0
 17 18  2  0
 17 19  1  0
 19 20  1  0
 20 21  1  0
 21 22  2  0
 22 23  1  0
 23 24  1  0
  6 25  1  0
 25 26  1  0
 26 27  1  0
 27 28  1  0
 26  3  1  0
 15  6  1  0
 24 20  2  0
 14  9  1  0
  1 29  1  0
  1 30  1  0
  1 31  1  0
  3 32  1  0
  4 33  1  0
  4 34  1  0
  5 35  1  0
  5 36  1  0
  7 37  1  0
  7 38  1  0
  8 39  1  0
  8 40  1  0
 13 41  1  0
 13 42  1  0
 15 43  1  0
 16 44  1  0
 19 45  1  0
 21 46  1  0
 23 47  1  0
 24 48  1  0
 25 49  1  0
 25 50  1  0
 26 51  1  0
 28 52  1  0
 28 53  1  0
 28 54  1  0
M  END
>  <Energy>  (1045) 
53.704502093925484

>  <compound_id>  (1045) 
4471

>  <target_id>  (1045) 
1

>  <reference_id>  (1045) 
188

>  <inspiration_ids>  (1045) 
[158, 188]

>  <energy_score>  (1045) 
1.2343723967654228

>  <distance_score>  (1045) 
2.1430904131919575

>  <path>  (1045) 
/opt/xchem-fragalysis-2/maxwin/BulkDock/SCRATCH/505735/C4471-P188/C4471-P188.minimised.mol

>  <scratch_subdir>  (1045) 
/opt/xchem-fragalysis-2/maxwin/BulkDock/SCRATCH/505735/C4471-P188

>  <fragmenstein_runtime>  (1045) 
7.272964000701904

>  <fragmenstein_outcome>  (1045) 
too moved

>  <fragmenstein_mode>  (1045) 
expansion

>  <fragmenstein_error>  (1045) 


$$$$
C4471-P158
     RDKit          3D

 54 57  0  0  0  0  0  0  0  0999 V2000
    0.2848    1.1868   29.0000 C   0  0  0  0  0  0  0  0  0  0  0  0
    0.7593   -0.0123   29.5979 O   0  0  0  0  0  0  0  0  0  0  0  0
   -0.0122   -0.4406   30.7268 C   0  0  0  0  0  0  0  0  0  0  0  0
    1.0011   -1.0437   31.6888 C   0  0  0  0  0  0  0  0  0  0  0  0
    0.5164   -2.2047   32.5404 C   0  0  0  0  0  0  0  0  0  0  0  0
   -0.0405   -3.3898   31.7338 C   0  0  0  0  0  0  0  0  0  0  0  0
    0.9643   -3.8894   30.6356 C   0  0  0  0  0  0  0  0  0  0  0  0
    0.5133   -5.1773   29.9171 C   0  0  0  0  0  0  0  0  0  0  0  0
   -0.2055   -6.1778   30.7557 C   0  0  0  0  0  0  0  0  0  0  0  0
   -0.6707   -7.3573   30.4022 N   0  0  0  0  0  0  0  0  0  0  0  0
   -1.2967   -7.9071   31.4947 N   0  0  0  0  0  0  0  0  0  0  0  0
   -1.1704   -7.0755   32.5049 C   0  0  0  0  0  0  0  0  0  0  0  0
   -1.5534   -7.3129   33.7737 N   0  0  0  0  0  0  0  0  0  0  0  0
   -0.5782   -5.9221   32.0480 N   0  0  0  0  0  0  0  0  0  0  0  0
   -0.1325   -4.6913   32.7015 C   0  0  0  0  0  0  0  0  0  0  0  0
   -0.3021   -4.6883   34.1326 N   0  0  0  0  0  0  0  0  0  0  0  0
    0.6240   -5.2534   35.2640 C   0  0  0  0  0  0  0  0  0  0  0  0
    1.6634   -5.7189   35.1998 O   0  0  0  0  0  0  0  0  0  0  0  0
   -0.3312   -5.0883   36.4862 N   0  0  0  0  0  0  0  0  0  0  0  0
   -0.2084   -5.5393   37.7757 C   0  0  0  0  0  0  0  0  0  0  0  0
    0.7292   -6.4800   38.2754 C   0  0  0  0  0  0  0  0  0  0  0  0
    0.5351   -6.7648   39.5673 N   0  0  0  0  0  0  0  0  0  0  0  0
   -0.5267   -6.0108   39.8932 N   0  0  0  0  0  0  0  0  0  0  0  0
   -0.9918   -5.2413   38.8583 C   0  0  0  0  0  0  0  0  0  0  0  0
   -1.3031   -2.8268   30.9874 C   0  0  0  0  0  0  0  0  0  0  0  0
   -1.2132   -1.3616   30.3806 C   0  0  0  0  0  0  0  0  0  0  0  0
   -1.6594   -1.2146   29.0289 O   0  0  0  0  0  0  0  0  0  0  0  0
   -0.9157   -1.9004   28.0369 C   0  0  0  0  0  0  0  0  0  0  0  0
    0.4915    2.0294   29.6655 H   0  0  0  0  0  0  0  0  0  0  0  0
   -0.7840    1.1378   28.7776 H   0  0  0  0  0  0  0  0  0  0  0  0
    0.8308    1.3439   28.0660 H   0  0  0  0  0  0  0  0  0  0  0  0
   -0.4180    0.4556   31.2190 H   0  0  0  0  0  0  0  0  0  0  0  0
    1.3593   -0.2484   32.3568 H   0  0  0  0  0  0  0  0  0  0  0  0
    1.9032   -1.3562   31.1458 H   0  0  0  0  0  0  0  0  0  0  0  0
   -0.2455   -1.8469   33.2455 H   0  0  0  0  0  0  0  0  0  0  0  0
    1.3630   -2.5403   33.1537 H   0  0  0  0  0  0  0  0  0  0  0  0
    1.9473   -4.0694   31.0934 H   0  0  0  0  0  0  0  0  0  0  0  0
    1.1396   -3.1199   29.8750 H   0  0  0  0  0  0  0  0  0  0  0  0
   -0.1611   -4.8831   29.1108 H   0  0  0  0  0  0  0  0  0  0  0  0
    1.3901   -5.6460   29.4576 H   0  0  0  0  0  0  0  0  0  0  0  0
   -1.7410   -8.3038   33.9673 H   0  0  0  0  0  0  0  0  0  0  0  0
   -0.9847   -6.9400   34.5249 H   0  0  0  0  0  0  0  0  0  0  0  0
    0.9424   -4.9436   32.7494 H   0  0  0  0  0  0  0  0  0  0  0  0
   -1.1262   -4.2729   34.5429 H   0  0  0  0  0  0  0  0  0  0  0  0
   -1.1415   -4.5594   36.2136 H   0  0  0  0  0  0  0  0  0  0  0  0
    1.5272   -6.9815   37.7420 H   0  0  0  0  0  0  0  0  0  0  0  0
   -0.8852   -6.0646   40.8411 H   0  0  0  0  0  0  0  0  0  0  0  0
   -1.8316   -4.5798   39.0032 H   0  0  0  0  0  0  0  0  0  0  0  0
   -1.6372   -3.5120   30.2115 H   0  0  0  0  0  0  0  0  0  0  0  0
   -2.1187   -2.8187   31.7248 H   0  0  0  0  0  0  0  0  0  0  0  0
   -2.0357   -0.8705   30.9232 H   0  0  0  0  0  0  0  0  0  0  0  0
    0.1082   -1.5362   27.9515 H   0  0  0  0  0  0  0  0  0  0  0  0
   -1.4188   -1.7185   27.0875 H   0  0  0  0  0  0  0  0  0  0  0  0
   -0.8987   -2.9725   28.2208 H   0  0  0  0  0  0  0  0  0  0  0  0
  1  2  1  0
  2  3  1  0
  3  4  1  0
  4  5  1  0
  5  6  1  0
  6  7  1  0
  7  8  1  0
  8  9  1  0
  9 10  2  0
 10 11  1  0
 11 12  2  0
 12 13  1  0
 12 14  1  0
 14 15  1  0
 15 16  1  0
 16 17  1  0
 17 18  2  0
 17 19  1  0
 19 20  1  0
 20 21  1  0
 21 22  2  0
 22 23  1  0
 23 24  1  0
  6 25  1  0
 25 26  1  0
 26 27  1  0
 27 28  1  0
 26  3  1  0
 15  6  1  0
 24 20  2  0
 14  9  1  0
  1 29  1  0
  1 30  1  0
  1 31  1  0
  3 32  1  0
  4 33  1  0
  4 34  1  0
  5 35  1  0
  5 36  1  0
  7 37  1  0
  7 38  1  0
  8 39  1  0
  8 40  1  0
 13 41  1  0
 13 42  1  0
 15 43  1  0
 16 44  1  0
 19 45  1  0
 21 46  1  0
 23 47  1  0
 24 48  1  0
 25 49  1  0
 25 50  1  0
 26 51  1  0
 28 52  1  0
 28 53  1  0
 28 54  1  0
M  END
>  <Energy>  (1046) 
48.276551737282787

>  <compound_id>  (1046) 
4471

>  <target_id>  (1046) 
1

>  <reference_id>  (1046) 
158

>  <inspiration_ids>  (1046) 
[158, 189]

>  <energy_score>  (1046) 
-4.193577959878496

>  <distance_score>  (1046) 
1.9743785625814223

>  <path>  (1046) 
/opt/xchem-fragalysis-2/maxwin/BulkDock/SCRATCH/505735/C4471-P158/C4471-P158.minimised.mol

>  <scratch_subdir>  (1046) 
/opt/xchem-fragalysis-2/maxwin/BulkDock/SCRATCH/505735/C4471-P158

>  <fragmenstein_runtime>  (1046) 
8.406124114990234

>  <fragmenstein_outcome>  (1046) 
too moved

>  <fragmenstein_mode>  (1046) 
expansion

>  <fragmenstein_error>  (1046) 


$$$$
C4471-P189
     RDKit          3D

 54 57  0  0  0  0  0  0  0  0999 V2000
    1.6336   -0.1602   28.5592 C   0  0  0  0  0  0  0  0  0  0  0  0
    0.7135   -1.1262   29.0541 O   0  0  0  0  0  0  0  0  0  0  0  0
   -0.0950   -0.6511   30.1366 C   0  0  0  0  0  0  0  0  0  0  0  0
    0.6523   -0.8365   31.4590 C   0  0  0  0  0  0  0  0  0  0  0  0
    0.3011   -2.0789   32.2946 C   0  0  0  0  0  0  0  0  0  0  0  0
   -0.1641   -3.3309   31.5337 C   0  0  0  0  0  0  0  0  0  0  0  0
    0.9270   -3.8726   30.5367 C   0  0  0  0  0  0  0  0  0  0  0  0
    0.5029   -5.1686   29.8198 C   0  0  0  0  0  0  0  0  0  0  0  0
   -0.2355   -6.1571   30.6564 C   0  0  0  0  0  0  0  0  0  0  0  0
   -0.6613   -7.3587   30.3263 N   0  0  0  0  0  0  0  0  0  0  0  0
   -1.2553   -7.9123   31.4336 N   0  0  0  0  0  0  0  0  0  0  0  0
   -1.1434   -7.0595   32.4274 C   0  0  0  0  0  0  0  0  0  0  0  0
   -1.4476   -7.3165   33.7149 N   0  0  0  0  0  0  0  0  0  0  0  0
   -0.6373   -5.8785   31.9366 N   0  0  0  0  0  0  0  0  0  0  0  0
   -0.2534   -4.6062   32.5594 C   0  0  0  0  0  0  0  0  0  0  0  0
   -0.4018   -4.5812   33.9953 N   0  0  0  0  0  0  0  0  0  0  0  0
    0.5539   -5.1073   35.1228 C   0  0  0  0  0  0  0  0  0  0  0  0
    1.6018   -5.5520   35.0505 O   0  0  0  0  0  0  0  0  0  0  0  0
   -0.3859   -4.9407   36.3570 N   0  0  0  0  0  0  0  0  0  0  0  0
   -0.2338   -5.3667   37.6533 C   0  0  0  0  0  0  0  0  0  0  0  0
    0.7822   -6.2169   38.1627 C   0  0  0  0  0  0  0  0  0  0  0  0
    0.5883   -6.5419   39.4439 N   0  0  0  0  0  0  0  0  0  0  0  0
   -0.5339   -5.8801   39.7661 N   0  0  0  0  0  0  0  0  0  0  0  0
   -1.0543   -5.1505   38.7276 C   0  0  0  0  0  0  0  0  0  0  0  0
   -1.4265   -2.8695   30.6901 C   0  0  0  0  0  0  0  0  0  0  0  0
   -1.4542   -1.3743   30.1483 C   0  0  0  0  0  0  0  0  0  0  0  0
   -2.1251   -1.3419   28.8735 O   0  0  0  0  0  0  0  0  0  0  0  0
   -2.1993   -0.0856   28.2226 C   0  0  0  0  0  0  0  0  0  0  0  0
    2.2974    0.1973   29.3509 H   0  0  0  0  0  0  0  0  0  0  0  0
    1.0988    0.6829   28.1125 H   0  0  0  0  0  0  0  0  0  0  0  0
    2.2433   -0.6331   27.7852 H   0  0  0  0  0  0  0  0  0  0  0  0
   -0.2699    0.4213   29.9802 H   0  0  0  0  0  0  0  0  0  0  0  0
    0.4651    0.0401   32.0930 H   0  0  0  0  0  0  0  0  0  0  0  0
    1.7343   -0.8511   31.2814 H   0  0  0  0  0  0  0  0  0  0  0  0
   -0.4938   -1.7962   32.9992 H   0  0  0  0  0  0  0  0  0  0  0  0
    1.1704   -2.3208   32.9202 H   0  0  0  0  0  0  0  0  0  0  0  0
    1.8702   -4.0506   31.0725 H   0  0  0  0  0  0  0  0  0  0  0  0
    1.1930   -3.1507   29.7700 H   0  0  0  0  0  0  0  0  0  0  0  0
   -0.1435   -4.8726   28.9922 H   0  0  0  0  0  0  0  0  0  0  0  0
    1.3918   -5.6446   29.3908 H   0  0  0  0  0  0  0  0  0  0  0  0
   -1.5531   -8.3190   33.9035 H   0  0  0  0  0  0  0  0  0  0  0  0
   -0.8558   -6.9045   34.4255 H   0  0  0  0  0  0  0  0  0  0  0  0
    0.8262   -4.8259   32.6298 H   0  0  0  0  0  0  0  0  0  0  0  0
   -1.2277   -4.1761   34.4107 H   0  0  0  0  0  0  0  0  0  0  0  0
   -1.2776   -4.5824   36.0581 H   0  0  0  0  0  0  0  0  0  0  0  0
    1.6350   -6.6331   37.6412 H   0  0  0  0  0  0  0  0  0  0  0  0
   -0.8950   -5.9712   40.7106 H   0  0  0  0  0  0  0  0  0  0  0  0
   -1.9538   -4.5707   38.8643 H   0  0  0  0  0  0  0  0  0  0  0  0
   -2.3108   -2.9899   31.3305 H   0  0  0  0  0  0  0  0  0  0  0  0
   -1.5977   -3.5389   29.8450 H   0  0  0  0  0  0  0  0  0  0  0  0
   -2.0997   -0.8236   30.8473 H   0  0  0  0  0  0  0  0  0  0  0  0
   -2.5061    0.6992   28.9194 H   0  0  0  0  0  0  0  0  0  0  0  0
   -2.9439   -0.1592   27.4250 H   0  0  0  0  0  0  0  0  0  0  0  0
   -1.2442    0.1692   27.7591 H   0  0  0  0  0  0  0  0  0  0  0  0
  1  2  1  0
  2  3  1  0
  3  4  1  0
  4  5  1  0
  5  6  1  0
  6  7  1  0
  7  8  1  0
  8  9  1  0
  9 10  2  0
 10 11  1  0
 11 12  2  0
 12 13  1  0
 12 14  1  0
 14 15  1  0
 15 16  1  0
 16 17  1  0
 17 18  2  0
 17 19  1  0
 19 20  1  0
 20 21  1  0
 21 22  2  0
 22 23  1  0
 23 24  1  0
  6 25  1  0
 25 26  1  0
 26 27  1  0
 27 28  1  0
 26  3  1  0
 15  6  1  0
 24 20  2  0
 14  9  1  0
  1 29  1  0
  1 30  1  0
  1 31  1  0
  3 32  1  0
  4 33  1  0
  4 34  1  0
  5 35  1  0
  5 36  1  0
  7 37  1  0
  7 38  1  0
  8 39  1  0
  8 40  1  0
 13 41  1  0
 13 42  1  0
 15 43  1  0
 16 44  1  0
 19 45  1  0
 21 46  1  0
 23 47  1  0
 24 48  1  0
 25 49  1  0
 25 50  1  0
 26 51  1  0
 28 52  1  0
 28 53  1  0
 28 54  1  0
M  END
>  <Energy>  (1047) 
47.347379511917232

>  <compound_id>  (1047) 
4471

>  <target_id>  (1047) 
1

>  <reference_id>  (1047) 
189

>  <inspiration_ids>  (1047) 
[158, 189]

>  <energy_score>  (1047) 
-5.122750185242808

>  <distance_score>  (1047) 
1.9535935142991665

>  <path>  (1047) 
/opt/xchem-fragalysis-2/maxwin/BulkDock/SCRATCH/505735/C4471-P189/C4471-P189.minimised.mol

>  <scratch_subdir>  (1047) 
/opt/xchem-fragalysis-2/maxwin/BulkDock/SCRATCH/505735/C4471-P189

>  <fragmenstein_runtime>  (1047) 
9.126610279083252

>  <fragmenstein_outcome>  (1047) 
too moved

>  <fragmenstein_mode>  (1047) 
expansion

>  <fragmenstein_error>  (1047) 


$$$$
C3912-P158
     RDKit          3D

 47 50  0  0  0  0  0  0  0  0999 V2000
    1.5787   -1.7444   33.1271 C   0  0  0  0  0  0  0  0  0  0  0  0
    0.4608   -2.4126   33.8853 N   0  0  0  0  0  0  0  0  0  0  0  0
    0.6343   -1.1990   34.7797 C   0  0  0  0  0  0  0  0  0  0  0  0
   -0.1770    0.0433   34.4295 C   0  0  0  0  0  0  0  0  0  0  0  0
   -1.5639    0.0651   34.6544 C   0  0  0  0  0  0  0  0  0  0  0  0
   -2.3228    1.1881   34.3317 C   0  0  0  0  0  0  0  0  0  0  0  0
   -1.7024    2.3042   33.7823 C   0  0  0  0  0  0  0  0  0  0  0  0
   -0.3269    2.3000   33.5536 C   0  0  0  0  0  0  0  0  0  0  0  0
    0.4348    1.1800   33.8832 C   0  0  0  0  0  0  0  0  0  0  0  0
   -0.5886   -2.7666   32.9972 C   0  0  0  0  0  0  0  0  0  0  0  0
   -1.5659   -2.1554   32.6571 O   0  0  0  0  0  0  0  0  0  0  0  0
   -0.3507   -4.0888   32.3586 C   0  0  0  0  0  0  0  0  0  0  0  0
   -0.0072   -4.0752   30.9411 C   0  0  0  0  0  0  0  0  0  0  0  0
    0.1170   -5.2096   30.2399 C   0  0  0  0  0  0  0  0  0  0  0  0
   -0.2427   -6.4358   30.8488 C   0  0  0  0  0  0  0  0  0  0  0  0
   -0.5175   -7.6150   30.3399 N   0  0  0  0  0  0  0  0  0  0  0  0
   -1.0291   -8.3900   31.3485 N   0  0  0  0  0  0  0  0  0  0  0  0
   -0.9871   -7.6904   32.4621 C   0  0  0  0  0  0  0  0  0  0  0  0
   -0.5041   -6.4307   32.2138 N   0  0  0  0  0  0  0  0  0  0  0  0
   -0.4775   -5.2675   33.0101 C   0  0  0  0  0  0  0  0  0  0  0  0
   -0.6216   -5.3459   34.3680 N   0  0  0  0  0  0  0  0  0  0  0  0
   -0.1290   -6.3717   35.3468 C   0  0  0  0  0  0  0  0  0  0  0  0
    0.4294   -7.3872   35.1604 O   0  0  0  0  0  0  0  0  0  0  0  0
   -0.5440   -5.7210   36.6256 N   0  0  0  0  0  0  0  0  0  0  0  0
   -0.3121   -6.0783   37.9223 C   0  0  0  0  0  0  0  0  0  0  0  0
    0.3661   -7.2011   38.4429 C   0  0  0  0  0  0  0  0  0  0  0  0
    0.3986   -7.1925   39.7809 N   0  0  0  0  0  0  0  0  0  0  0  0
   -0.2995   -6.0932   40.1069 N   0  0  0  0  0  0  0  0  0  0  0  0
   -0.7279   -5.3766   39.0252 C   0  0  0  0  0  0  0  0  0  0  0  0
    1.8734   -2.4743   32.3583 H   0  0  0  0  0  0  0  0  0  0  0  0
    2.5288   -1.6133   33.6662 H   0  0  0  0  0  0  0  0  0  0  0  0
    1.2651   -0.8865   32.5200 H   0  0  0  0  0  0  0  0  0  0  0  0
    0.1489   -1.5641   35.7010 H   0  0  0  0  0  0  0  0  0  0  0  0
    1.6364   -0.9786   35.1864 H   0  0  0  0  0  0  0  0  0  0  0  0
   -2.0675   -0.8093   35.0626 H   0  0  0  0  0  0  0  0  0  0  0  0
   -3.3946    1.1868   34.5112 H   0  0  0  0  0  0  0  0  0  0  0  0
   -2.2894    3.1902   33.5578 H   0  0  0  0  0  0  0  0  0  0  0  0
    0.1603    3.1808   33.1426 H   0  0  0  0  0  0  0  0  0  0  0  0
    1.5090    1.2093   33.7169 H   0  0  0  0  0  0  0  0  0  0  0  0
    0.1695   -3.1138   30.4636 H   0  0  0  0  0  0  0  0  0  0  0  0
    0.3795   -5.1721   29.1934 H   0  0  0  0  0  0  0  0  0  0  0  0
   -1.3355   -8.0305   33.4285 H   0  0  0  0  0  0  0  0  0  0  0  0
   -0.9835   -4.5521   34.8709 H   0  0  0  0  0  0  0  0  0  0  0  0
   -1.0749   -4.8966   36.4213 H   0  0  0  0  0  0  0  0  0  0  0  0
    0.8254   -8.0235   37.9069 H   0  0  0  0  0  0  0  0  0  0  0  0
   -0.4448   -5.8908   41.0905 H   0  0  0  0  0  0  0  0  0  0  0  0
   -1.2956   -4.4670   39.1517 H   0  0  0  0  0  0  0  0  0  0  0  0
  1  2  1  0
  2  3  1  0
  3  4  1  0
  4  5  2  0
  5  6  1  0
  6  7  2  0
  7  8  1  0
  8  9  2  0
  2 10  1  0
 10 11  2  0
 10 12  1  0
 12 13  1  0
 13 14  2  0
 14 15  1  0
 15 16  2  0
 16 17  1  0
 17 18  2  0
 18 19  1  0
 19 20  1  0
 20 21  1  0
 21 22  1  0
 22 23  2  0
 22 24  1  0
 24 25  1  0
 25 26  1  0
 26 27  2  0
 27 28  1  0
 28 29  1  0
  9  4  1  0
 20 12  2  0
 29 25  2  0
 19 15  1  0
  1 30  1  0
  1 31  1  0
  1 32  1  0
  3 33  1  0
  3 34  1  0
  5 35  1  0
  6 36  1  0
  7 37  1  0
  8 38  1  0
  9 39  1  0
 13 40  1  0
 14 41  1  0
 18 42  1  0
 21 43  1  0
 24 44  1  0
 26 45  1  0
 28 46  1  0
 29 47  1  0
M  END
>  <Energy>  (1048) 
109.90955067517163

>  <compound_id>  (1048) 
3912

>  <target_id>  (1048) 
1

>  <reference_id>  (1048) 
158

>  <inspiration_ids>  (1048) 
[158, 190]

>  <energy_score>  (1048) 
29.97385039288656

>  <distance_score>  (1048) 
2.6826344087341822

>  <path>  (1048) 
/opt/xchem-fragalysis-2/maxwin/BulkDock/SCRATCH/505735/C3912-P158/C3912-P158.minimised.mol

>  <scratch_subdir>  (1048) 
/opt/xchem-fragalysis-2/maxwin/BulkDock/SCRATCH/505735/C3912-P158

>  <fragmenstein_runtime>  (1048) 
14.555694103240967

>  <fragmenstein_outcome>  (1048) 
too moved

>  <fragmenstein_mode>  (1048) 
expansion

>  <fragmenstein_error>  (1048) 


$$$$
C3912-P190
     RDKit          3D

 47 50  0  0  0  0  0  0  0  0999 V2000
    1.8386   -2.3105   32.9966 C   0  0  0  0  0  0  0  0  0  0  0  0
    0.4053   -2.6098   33.3630 N   0  0  0  0  0  0  0  0  0  0  0  0
    0.4957   -1.2012   33.9664 C   0  0  0  0  0  0  0  0  0  0  0  0
    0.6628    0.0313   33.0675 C   0  0  0  0  0  0  0  0  0  0  0  0
    1.7569    0.8913   33.2603 C   0  0  0  0  0  0  0  0  0  0  0  0
    2.0110    1.9271   32.3584 C   0  0  0  0  0  0  0  0  0  0  0  0
    1.1867    2.1067   31.2488 C   0  0  0  0  0  0  0  0  0  0  0  0
    0.0828    1.2836   31.0646 C   0  0  0  0  0  0  0  0  0  0  0  0
   -0.2043    0.2871   31.9952 C   0  0  0  0  0  0  0  0  0  0  0  0
   -0.2968   -3.0857   32.2322 C   0  0  0  0  0  0  0  0  0  0  0  0
   -0.9318   -2.4954   31.3991 O   0  0  0  0  0  0  0  0  0  0  0  0
   -0.1338   -4.5477   31.9882 C   0  0  0  0  0  0  0  0  0  0  0  0
    0.3876   -4.8706   30.6549 C   0  0  0  0  0  0  0  0  0  0  0  0
    0.4161   -6.1255   30.1953 C   0  0  0  0  0  0  0  0  0  0  0  0
   -0.2153   -7.1329   30.9447 C   0  0  0  0  0  0  0  0  0  0  0  0
   -0.6670   -8.3158   30.6076 N   0  0  0  0  0  0  0  0  0  0  0  0
   -1.2583   -8.8520   31.7159 N   0  0  0  0  0  0  0  0  0  0  0  0
   -1.1284   -7.9953   32.7060 C   0  0  0  0  0  0  0  0  0  0  0  0
   -0.5207   -6.8494   32.2676 N   0  0  0  0  0  0  0  0  0  0  0  0
   -0.4033   -5.5618   32.8421 C   0  0  0  0  0  0  0  0  0  0  0  0
   -0.5832   -5.3777   34.1853 N   0  0  0  0  0  0  0  0  0  0  0  0
   -0.2577   -6.2722   35.3493 C   0  0  0  0  0  0  0  0  0  0  0  0
    0.1558   -7.3700   35.3650 O   0  0  0  0  0  0  0  0  0  0  0  0
   -0.5808   -5.3512   36.4759 N   0  0  0  0  0  0  0  0  0  0  0  0
   -0.4022   -5.4940   37.8208 C   0  0  0  0  0  0  0  0  0  0  0  0
    0.2144   -6.5495   38.5274 C   0  0  0  0  0  0  0  0  0  0  0  0
    0.1846   -6.3541   39.8486 N   0  0  0  0  0  0  0  0  0  0  0  0
   -0.4769   -5.1935   39.9822 N   0  0  0  0  0  0  0  0  0  0  0  0
   -0.8145   -4.6160   38.7891 C   0  0  0  0  0  0  0  0  0  0  0  0
    1.9555   -1.7259   32.0740 H   0  0  0  0  0  0  0  0  0  0  0  0
    2.5232   -2.0373   33.8142 H   0  0  0  0  0  0  0  0  0  0  0  0
    2.2441   -3.2890   32.6926 H   0  0  0  0  0  0  0  0  0  0  0  0
    1.1159   -1.1760   34.8781 H   0  0  0  0  0  0  0  0  0  0  0  0
   -0.5183   -1.0746   34.3783 H   0  0  0  0  0  0  0  0  0  0  0  0
    2.4394    0.7439   34.0944 H   0  0  0  0  0  0  0  0  0  0  0  0
    2.8671    2.5813   32.5057 H   0  0  0  0  0  0  0  0  0  0  0  0
    1.4004    2.8964   30.5319 H   0  0  0  0  0  0  0  0  0  0  0  0
   -0.5556    1.4122   30.1938 H   0  0  0  0  0  0  0  0  0  0  0  0
   -1.0964   -0.3115   31.8405 H   0  0  0  0  0  0  0  0  0  0  0  0
    0.8161   -4.0620   30.0655 H   0  0  0  0  0  0  0  0  0  0  0  0
    0.8822   -6.3720   29.2571 H   0  0  0  0  0  0  0  0  0  0  0  0
   -1.5081   -8.1401   33.7063 H   0  0  0  0  0  0  0  0  0  0  0  0
   -0.8395   -4.4655   34.5269 H   0  0  0  0  0  0  0  0  0  0  0  0
   -0.9934   -4.5137   36.1116 H   0  0  0  0  0  0  0  0  0  0  0  0
    0.6720   -7.4520   38.1388 H   0  0  0  0  0  0  0  0  0  0  0  0
   -0.6629   -4.8527   40.9199 H   0  0  0  0  0  0  0  0  0  0  0  0
   -1.3458   -3.6769   38.7583 H   0  0  0  0  0  0  0  0  0  0  0  0
  1  2  1  0
  2  3  1  0
  3  4  1  0
  4  5  2  0
  5  6  1  0
  6  7  2  0
  7  8  1  0
  8  9  2  0
  2 10  1  0
 10 11  2  0
 10 12  1  0
 12 13  1  0
 13 14  2  0
 14 15  1  0
 15 16  2  0
 16 17  1  0
 17 18  2  0
 18 19  1  0
 19 20  1  0
 20 21  1  0
 21 22  1  0
 22 23  2  0
 22 24  1  0
 24 25  1  0
 25 26  1  0
 26 27  2  0
 27 28  1  0
 28 29  1  0
  9  4  1  0
 20 12  2  0
 29 25  2  0
 19 15  1  0
  1 30  1  0
  1 31  1  0
  1 32  1  0
  3 33  1  0
  3 34  1  0
  5 35  1  0
  6 36  1  0
  7 37  1  0
  8 38  1  0
  9 39  1  0
 13 40  1  0
 14 41  1  0
 18 42  1  0
 21 43  1  0
 24 44  1  0
 26 45  1  0
 28 46  1  0
 29 47  1  0
M  END
>  <Energy>  (1049) 
112.54790319867649

>  <compound_id>  (1049) 
3912

>  <target_id>  (1049) 
1

>  <reference_id>  (1049) 
190

>  <inspiration_ids>  (1049) 
[158, 190]

>  <energy_score>  (1049) 
32.612202916393954

>  <distance_score>  (1049) 
2.3954117867470126

>  <path>  (1049) 
/opt/xchem-fragalysis-2/maxwin/BulkDock/SCRATCH/505735/C3912-P190/C3912-P190.minimised.mol

>  <scratch_subdir>  (1049) 
/opt/xchem-fragalysis-2/maxwin/BulkDock/SCRATCH/505735/C3912-P190

>  <fragmenstein_runtime>  (1049) 
13.02944278717041

>  <fragmenstein_outcome>  (1049) 
too moved

>  <fragmenstein_mode>  (1049) 
expansion

>  <fragmenstein_error>  (1049) 


$$$$
C3912-P158
     RDKit          3D

 47 50  0  0  0  0  0  0  0  0999 V2000
   -1.8956   -1.7228   32.4919 C   0  0  0  0  0  0  0  0  0  0  0  0
   -0.4214   -1.9732   32.2791 N   0  0  0  0  0  0  0  0  0  0  0  0
   -0.3879   -0.4725   32.2616 C   0  0  0  0  0  0  0  0  0  0  0  0
   -0.1836    0.0429   30.8313 C   0  0  0  0  0  0  0  0  0  0  0  0
    0.5153    1.2392   30.6230 C   0  0  0  0  0  0  0  0  0  0  0  0
    0.7412    1.7161   29.3277 C   0  0  0  0  0  0  0  0  0  0  0  0
    0.2585    1.0191   28.2220 C   0  0  0  0  0  0  0  0  0  0  0  0
   -0.4326   -0.1707   28.4065 C   0  0  0  0  0  0  0  0  0  0  0  0
   -0.6510   -0.6537   29.6987 C   0  0  0  0  0  0  0  0  0  0  0  0
    0.0595   -2.9023   33.2425 C   0  0  0  0  0  0  0  0  0  0  0  0
    0.5345   -2.7248   34.3302 O   0  0  0  0  0  0  0  0  0  0  0  0
   -0.0226   -4.2694   32.6124 C   0  0  0  0  0  0  0  0  0  0  0  0
    0.3135   -4.3821   31.1880 C   0  0  0  0  0  0  0  0  0  0  0  0
    0.1751   -5.5281   30.5126 C   0  0  0  0  0  0  0  0  0  0  0  0
   -0.3745   -6.6477   31.1700 C   0  0  0  0  0  0  0  0  0  0  0  0
   -0.8365   -7.7843   30.7054 N   0  0  0  0  0  0  0  0  0  0  0  0
   -1.3645   -8.4713   31.7631 N   0  0  0  0  0  0  0  0  0  0  0  0
   -1.1769   -7.7550   32.8529 C   0  0  0  0  0  0  0  0  0  0  0  0
   -0.5562   -6.5695   32.5479 N   0  0  0  0  0  0  0  0  0  0  0  0
   -0.3036   -5.3990   33.3055 C   0  0  0  0  0  0  0  0  0  0  0  0
   -0.3614   -5.3990   34.6741 N   0  0  0  0  0  0  0  0  0  0  0  0
   -0.0478   -6.4772   35.6651 C   0  0  0  0  0  0  0  0  0  0  0  0
    0.2463   -7.5986   35.4921 O   0  0  0  0  0  0  0  0  0  0  0  0
   -0.2716   -5.7257   36.9360 N   0  0  0  0  0  0  0  0  0  0  0  0
   -0.1097   -6.1076   38.2355 C   0  0  0  0  0  0  0  0  0  0  0  0
    0.3367   -7.3380   38.7627 C   0  0  0  0  0  0  0  0  0  0  0  0
    0.3582   -7.3326   40.1009 N   0  0  0  0  0  0  0  0  0  0  0  0
   -0.1042   -6.1129   40.4186 N   0  0  0  0  0  0  0  0  0  0  0  0
   -0.3831   -5.3319   39.3328 C   0  0  0  0  0  0  0  0  0  0  0  0
   -2.1256   -1.4168   33.5257 H   0  0  0  0  0  0  0  0  0  0  0  0
   -2.3694   -2.7123   32.4104 H   0  0  0  0  0  0  0  0  0  0  0  0
   -2.4216   -1.1294   31.7296 H   0  0  0  0  0  0  0  0  0  0  0  0
   -1.0793    0.1578   32.8510 H   0  0  0  0  0  0  0  0  0  0  0  0
    0.5700   -0.2723   32.7695 H   0  0  0  0  0  0  0  0  0  0  0  0
    0.9106    1.8031   31.4653 H   0  0  0  0  0  0  0  0  0  0  0  0
    1.2916    2.6428   29.1783 H   0  0  0  0  0  0  0  0  0  0  0  0
    0.4261    1.4005   27.2182 H   0  0  0  0  0  0  0  0  0  0  0  0
   -0.8008   -0.7282   27.5454 H   0  0  0  0  0  0  0  0  0  0  0  0
   -1.1814   -1.5986   29.7920 H   0  0  0  0  0  0  0  0  0  0  0  0
    0.7265   -3.5117   30.6816 H   0  0  0  0  0  0  0  0  0  0  0  0
    0.4348   -5.5827   29.4669 H   0  0  0  0  0  0  0  0  0  0  0  0
   -1.5047   -8.0366   33.8444 H   0  0  0  0  0  0  0  0  0  0  0  0
   -0.4923   -4.5262   35.1610 H   0  0  0  0  0  0  0  0  0  0  0  0
   -0.5920   -4.8013   36.7226 H   0  0  0  0  0  0  0  0  0  0  0  0
    0.6332   -8.2343   38.2296 H   0  0  0  0  0  0  0  0  0  0  0  0
   -0.2035   -5.8793   41.4008 H   0  0  0  0  0  0  0  0  0  0  0  0
   -0.7592   -4.3270   39.4506 H   0  0  0  0  0  0  0  0  0  0  0  0
  1  2  1  0
  2  3  1  0
  3  4  1  0
  4  5  2  0
  5  6  1  0
  6  7  2  0
  7  8  1  0
  8  9  2  0
  2 10  1  0
 10 11  2  0
 10 12  1  0
 12 13  1  0
 13 14  2  0
 14 15  1  0
 15 16  2  0
 16 17  1  0
 17 18  2  0
 18 19  1  0
 19 20  1  0
 20 21  1  0
 21 22  1  0
 22 23  2  0
 22 24  1  0
 24 25  1  0
 25 26  1  0
 26 27  2  0
 27 28  1  0
 28 29  1  0
  9  4  1  0
 20 12  2  0
 29 25  2  0
 19 15  1  0
  1 30  1  0
  1 31  1  0
  1 32  1  0
  3 33  1  0
  3 34  1  0
  5 35  1  0
  6 36  1  0
  7 37  1  0
  8 38  1  0
  9 39  1  0
 13 40  1  0
 14 41  1  0
 18 42  1  0
 21 43  1  0
 24 44  1  0
 26 45  1  0
 28 46  1  0
 29 47  1  0
M  END
>  <Energy>  (1050) 
98.8664027395278

>  <compound_id>  (1050) 
3912

>  <target_id>  (1050) 
1

>  <reference_id>  (1050) 
158

>  <inspiration_ids>  (1050) 
[158, 194]

>  <energy_score>  (1050) 
18.930702457245843

>  <distance_score>  (1050) 
1.7603869763032944

>  <path>  (1050) 
/opt/xchem-fragalysis-2/maxwin/BulkDock/SCRATCH/505735/C3912-P158/C3912-P158.minimised.mol

>  <scratch_subdir>  (1050) 
/opt/xchem-fragalysis-2/maxwin/BulkDock/SCRATCH/505735/C3912-P158

>  <fragmenstein_runtime>  (1050) 
18.92074680328369

>  <fragmenstein_outcome>  (1050) 
too moved

>  <fragmenstein_mode>  (1050) 
expansion

>  <fragmenstein_error>  (1050) 


$$$$
C3912-P194
     RDKit          3D

 47 50  0  0  0  0  0  0  0  0999 V2000
   -1.6496   -1.7375   32.4165 C   0  0  0  0  0  0  0  0  0  0  0  0
   -0.1970   -2.0198   32.0982 N   0  0  0  0  0  0  0  0  0  0  0  0
   -0.1367   -0.5201   32.0590 C   0  0  0  0  0  0  0  0  0  0  0  0
   -0.2560    0.0573   30.6456 C   0  0  0  0  0  0  0  0  0  0  0  0
    0.1066    1.3925   30.4230 C   0  0  0  0  0  0  0  0  0  0  0  0
   -0.0396    1.9708   29.1583 C   0  0  0  0  0  0  0  0  0  0  0  0
   -0.5423    1.2240   28.0961 C   0  0  0  0  0  0  0  0  0  0  0  0
   -0.8739   -0.1113   28.2885 C   0  0  0  0  0  0  0  0  0  0  0  0
   -0.7215   -0.6925   29.5484 C   0  0  0  0  0  0  0  0  0  0  0  0
    0.3359   -2.9467   33.0351 C   0  0  0  0  0  0  0  0  0  0  0  0
    0.8933   -2.7660   34.0829 O   0  0  0  0  0  0  0  0  0  0  0  0
    0.1878   -4.3230   32.4413 C   0  0  0  0  0  0  0  0  0  0  0  0
    0.4801   -4.4833   31.0143 C   0  0  0  0  0  0  0  0  0  0  0  0
    0.2766   -5.6407   30.3752 C   0  0  0  0  0  0  0  0  0  0  0  0
   -0.3066   -6.7171   31.0739 C   0  0  0  0  0  0  0  0  0  0  0  0
   -0.8212   -7.8496   30.6529 N   0  0  0  0  0  0  0  0  0  0  0  0
   -1.3360   -8.4927   31.7422 N   0  0  0  0  0  0  0  0  0  0  0  0
   -1.1030   -7.7467   32.8015 C   0  0  0  0  0  0  0  0  0  0  0  0
   -0.4491   -6.5942   32.4545 N   0  0  0  0  0  0  0  0  0  0  0  0
   -0.1299   -5.4174   33.1776 C   0  0  0  0  0  0  0  0  0  0  0  0
   -0.1575   -5.3476   34.5514 N   0  0  0  0  0  0  0  0  0  0  0  0
    0.0179   -6.4169   35.5906 C   0  0  0  0  0  0  0  0  0  0  0  0
    0.1422   -7.5773   35.4675 O   0  0  0  0  0  0  0  0  0  0  0  0
   -0.0461   -5.5813   36.8263 N   0  0  0  0  0  0  0  0  0  0  0  0
    0.1110   -5.9197   38.1385 C   0  0  0  0  0  0  0  0  0  0  0  0
    0.4534   -7.1590   38.7186 C   0  0  0  0  0  0  0  0  0  0  0  0
    0.4894   -7.0927   40.0532 N   0  0  0  0  0  0  0  0  0  0  0  0
    0.1678   -5.8188   40.3195 N   0  0  0  0  0  0  0  0  0  0  0  0
   -0.0556   -5.0675   39.2005 C   0  0  0  0  0  0  0  0  0  0  0  0
   -2.1439   -2.7199   32.3748 H   0  0  0  0  0  0  0  0  0  0  0  0
   -2.2298   -1.1372   31.7018 H   0  0  0  0  0  0  0  0  0  0  0  0
   -1.7975   -1.4275   33.4640 H   0  0  0  0  0  0  0  0  0  0  0  0
   -0.6461    0.0807   32.8343 H   0  0  0  0  0  0  0  0  0  0  0  0
    0.9203   -0.3463   32.3217 H   0  0  0  0  0  0  0  0  0  0  0  0
    0.4934    2.0046   31.2352 H   0  0  0  0  0  0  0  0  0  0  0  0
    0.2220    3.0159   29.0056 H   0  0  0  0  0  0  0  0  0  0  0  0
   -0.6758    1.6830   27.1205 H   0  0  0  0  0  0  0  0  0  0  0  0
   -1.2584   -0.7024   27.4586 H   0  0  0  0  0  0  0  0  0  0  0  0
   -0.9882   -1.7416   29.6512 H   0  0  0  0  0  0  0  0  0  0  0  0
    0.9257   -3.6463   30.4802 H   0  0  0  0  0  0  0  0  0  0  0  0
    0.5346   -5.7477   29.3333 H   0  0  0  0  0  0  0  0  0  0  0  0
   -1.4302   -7.9786   33.8024 H   0  0  0  0  0  0  0  0  0  0  0  0
   -0.1496   -4.4433   34.9980 H   0  0  0  0  0  0  0  0  0  0  0  0
   -0.2398   -4.6310   36.5745 H   0  0  0  0  0  0  0  0  0  0  0  0
    0.6676   -8.1044   38.2334 H   0  0  0  0  0  0  0  0  0  0  0  0
    0.1203   -5.5308   41.2914 H   0  0  0  0  0  0  0  0  0  0  0  0
   -0.3238   -4.0244   39.2742 H   0  0  0  0  0  0  0  0  0  0  0  0
  1  2  1  0
  2  3  1  0
  3  4  1  0
  4  5  2  0
  5  6  1  0
  6  7  2  0
  7  8  1  0
  8  9  2  0
  2 10  1  0
 10 11  2  0
 10 12  1  0
 12 13  1  0
 13 14  2  0
 14 15  1  0
 15 16  2  0
 16 17  1  0
 17 18  2  0
 18 19  1  0
 19 20  1  0
 20 21  1  0
 21 22  1  0
 22 23  2  0
 22 24  1  0
 24 25  1  0
 25 26  1  0
 26 27  2  0
 27 28  1  0
 28 29  1  0
  9  4  1  0
 20 12  2  0
 29 25  2  0
 19 15  1  0
  1 30  1  0
  1 31  1  0
  1 32  1  0
  3 33  1  0
  3 34  1  0
  5 35  1  0
  6 36  1  0
  7 37  1  0
  8 38  1  0
  9 39  1  0
 13 40  1  0
 14 41  1  0
 18 42  1  0
 21 43  1  0
 24 44  1  0
 26 45  1  0
 28 46  1  0
 29 47  1  0
M  END
>  <Energy>  (1051) 
96.391526126294934

>  <compound_id>  (1051) 
3912

>  <target_id>  (1051) 
1

>  <reference_id>  (1051) 
194

>  <inspiration_ids>  (1051) 
[158, 194]

>  <energy_score>  (1051) 
16.455825844012594

>  <distance_score>  (1051) 
1.6877771823472116

>  <path>  (1051) 
/opt/xchem-fragalysis-2/maxwin/BulkDock/SCRATCH/505735/C3912-P194/C3912-P194.minimised.mol

>  <scratch_subdir>  (1051) 
/opt/xchem-fragalysis-2/maxwin/BulkDock/SCRATCH/505735/C3912-P194

>  <fragmenstein_runtime>  (1051) 
17.01944065093994

>  <fragmenstein_outcome>  (1051) 
too moved

>  <fragmenstein_mode>  (1051) 
expansion

>  <fragmenstein_error>  (1051) 


$$$$
C4472-P195
     RDKit          2D

  0  0  0  0  0  0  0  0  0  0999 V2000
M  END
>  <compound_id>  (1052) 
4472

>  <target_id>  (1052) 
1

>  <reference_id>  (1052) 
195

>  <inspiration_ids>  (1052) 
[158, 195]

>  <energy_score>  (1052) 
nan

>  <distance_score>  (1052) 
nan

>  <path>  (1052) 
/opt/xchem-fragalysis-2/maxwin/BulkDock/SCRATCH/505735/C4472-P195/C4472-P195.minimised.mol

>  <scratch_subdir>  (1052) 
/opt/xchem-fragalysis-2/maxwin/BulkDock/SCRATCH/505735/C4472-P195

>  <fragmenstein_runtime>  (1052) 
0.6572964191436768

>  <fragmenstein_outcome>  (1052) 
too distant

>  <fragmenstein_mode>  (1052) 
expansion

>  <fragmenstein_error>  (1052) 
DistanceError: hit1

$$$$
C4080-P197
     RDKit          2D

  0  0  0  0  0  0  0  0  0  0999 V2000
M  END
>  <compound_id>  (1053) 
4080

>  <target_id>  (1053) 
1

>  <reference_id>  (1053) 
197

>  <inspiration_ids>  (1053) 
[158, 197]

>  <energy_score>  (1053) 
nan

>  <distance_score>  (1053) 
nan

>  <path>  (1053) 
/opt/xchem-fragalysis-2/maxwin/BulkDock/SCRATCH/505735/C4080-P197/C4080-P197.minimised.mol

>  <scratch_subdir>  (1053) 
/opt/xchem-fragalysis-2/maxwin/BulkDock/SCRATCH/505735/C4080-P197

>  <fragmenstein_runtime>  (1053) 
0.3480255603790283

>  <fragmenstein_outcome>  (1053) 
too distant

>  <fragmenstein_mode>  (1053) 
expansion

>  <fragmenstein_error>  (1053) 
DistanceError: hit0+hit1

$$$$
C4080-P158
     RDKit          3D

 58 62  0  0  0  0  0  0  0  0999 V2000
   -1.1485   -5.4739   36.4399 O   0  0  0  0  0  0  0  0  0  0  0  0
   -0.2488   -4.7244   36.4006 C   0  0  0  0  0  0  0  0  0  0  0  0
    0.7001   -4.3029   37.4754 N   0  0  0  0  0  0  0  0  0  0  0  0
    0.8368   -4.7380   38.7637 C   0  0  0  0  0  0  0  0  0  0  0  0
    1.8414   -4.4654   39.7087 C   0  0  0  0  0  0  0  0  0  0  0  0
    1.6560   -5.1274   40.8556 N   0  0  0  0  0  0  0  0  0  0  0  0
    0.5194   -5.8163   40.6417 N   0  0  0  0  0  0  0  0  0  0  0  0
   -0.0075   -5.6119   39.4021 C   0  0  0  0  0  0  0  0  0  0  0  0
    0.3458   -3.9859   35.2319 N   0  0  0  0  0  0  0  0  0  0  0  0
    0.0590   -4.0559   33.8808 C   0  0  0  0  0  0  0  0  0  0  0  0
    0.7905   -3.0669   32.6733 C   0  0  0  0  0  0  0  0  0  0  0  0
   -0.6214   -1.8792   31.5004 C   0  0  0  0  0  0  0  0  0  0  0  0
   -1.8324   -2.1552   31.2884 O   0  0  0  0  0  0  0  0  0  0  0  0
   -0.2273   -0.6024   30.6837 N   0  0  0  0  0  0  0  0  0  0  0  0
   -0.2241    0.8510   30.8876 C   0  0  0  0  0  0  0  0  0  0  0  0
    1.3599    1.6492   30.9494 C   0  0  0  0  0  0  0  0  0  0  0  0
    1.8444    1.3936   32.3612 C   0  0  0  0  0  0  0  0  0  0  0  0
    0.6987    0.6139   32.9465 C   0  0  0  0  0  0  0  0  0  0  0  0
    0.8122   -0.9249   32.8701 C   0  0  0  0  0  0  0  0  0  0  0  0
    1.5301   -1.6112   31.3583 C   0  0  0  0  0  0  0  0  0  0  0  0
    0.6419   -2.9635   30.5465 C   0  0  0  0  0  0  0  0  0  0  0  0
   -0.3887   -4.0643   31.6918 C   0  0  0  0  0  0  0  0  0  0  0  0
    1.0276   -5.3206   32.7897 C   0  0  0  0  0  0  0  0  0  0  0  0
    1.6706   -6.6435   32.4702 O   0  0  0  0  0  0  0  0  0  0  0  0
   -1.3724   -3.0978   32.9736 C   0  0  0  0  0  0  0  0  0  0  0  0
   -0.6371   -1.6267   33.6216 C   0  0  0  0  0  0  0  0  0  0  0  0
   -0.5157    0.8254   31.7672 C   0  0  0  0  0  0  0  0  0  0  0  0
    1.7976   -4.2478   31.4172 C   0  0  0  0  0  0  0  0  0  0  0  0
    0.9446   -5.4496   30.7074 C   0  0  0  0  0  0  0  0  0  0  0  0
   -0.5027   -6.1307   31.5779 C   0  0  0  0  0  0  0  0  0  0  0  0
   -1.0503   -7.3268   31.5577 N   0  0  0  0  0  0  0  0  0  0  0  0
   -1.6308   -7.5896   32.7946 N   0  0  0  0  0  0  0  0  0  0  0  0
   -1.4859   -6.6269   33.6933 C   0  0  0  0  0  0  0  0  0  0  0  0
   -0.9143   -5.4722   33.1801 N   0  0  0  0  0  0  0  0  0  0  0  0
    1.4026   -3.7090   37.0827 H   0  0  0  0  0  0  0  0  0  0  0  0
    2.7089   -3.8263   39.6149 H   0  0  0  0  0  0  0  0  0  0  0  0
    0.1618   -6.4082   41.3845 H   0  0  0  0  0  0  0  0  0  0  0  0
   -0.9151   -6.1082   39.0873 H   0  0  0  0  0  0  0  0  0  0  0  0
    1.0560   -3.3600   35.5606 H   0  0  0  0  0  0  0  0  0  0  0  0
    0.1046    0.8311   29.7701 H   0  0  0  0  0  0  0  0  0  0  0  0
   -1.0720    1.4134   30.1870 H   0  0  0  0  0  0  0  0  0  0  0  0
    2.0379    1.2315   30.1962 H   0  0  0  0  0  0  0  0  0  0  0  0
    1.1994    2.7182   30.7655 H   0  0  0  0  0  0  0  0  0  0  0  0
    1.9703    2.3489   32.8822 H   0  0  0  0  0  0  0  0  0  0  0  0
    2.8028    0.8673   32.3946 H   0  0  0  0  0  0  0  0  0  0  0  0
    0.3730    0.9617   33.9306 H   0  0  0  0  0  0  0  0  0  0  0  0
    2.2079   -1.0163   30.7446 H   0  0  0  0  0  0  0  0  0  0  0  0
    0.8101   -3.2067   29.4927 H   0  0  0  0  0  0  0  0  0  0  0  0
    0.8058   -5.7994   33.7982 H   0  0  0  0  0  0  0  0  0  0  0  0
    1.9356   -4.7810   33.2484 H   0  0  0  0  0  0  0  0  0  0  0  0
    0.9669   -7.3279   32.4795 H   0  0  0  0  0  0  0  0  0  0  0  0
   -2.4172   -3.3008   33.1806 H   0  0  0  0  0  0  0  0  0  0  0  0
   -1.2385   -1.0249   34.3055 H   0  0  0  0  0  0  0  0  0  0  0  0
   -1.3550    0.2715   32.3612 H   0  0  0  0  0  0  0  0  0  0  0  0
   -1.2760    1.7610   31.9776 H   0  0  0  0  0  0  0  0  0  0  0  0
    2.7900   -3.9030   31.1199 H   0  0  0  0  0  0  0  0  0  0  0  0
    1.3340   -6.0721   29.9131 H   0  0  0  0  0  0  0  0  0  0  0  0
   -1.7675   -6.7259   34.7276 H   0  0  0  0  0  0  0  0  0  0  0  0
  1  2  2  0
  2  3  1  0
  3  4  1  0
  4  5  1  0
  5  6  2  0
  6  7  1  0
  7  8  1  0
  2  9  1  0
  9 10  1  0
 10 11  2  0
 11 12  1  0
 12 13  2  0
 12 14  1  0
 14 15  1  0
 15 16  1  0
 16 17  1  0
 17 18  1  0
 18 19  1  0
 19 20  2  0
 20 21  1  0
 21 22  2  0
 22 23  1  0
 23 24  1  0
 22 25  1  0
 25 26  2  0
 18 27  1  0
 11 28  1  0
 28 29  2  0
 29 30  1  0
 30 31  2  0
 31 32  1  0
 32 33  2  0
 33 34  1  0
  8  4  2  0
 34 10  1  0
 27 14  1  0
 34 30  1  0
 26 19  1  0
  3 35  1  0
  5 36  1  0
  7 37  1  0
  8 38  1  0
  9 39  1  0
 15 40  1  0
 15 41  1  0
 16 42  1  0
 16 43  1  0
 17 44  1  0
 17 45  1  0
 18 46  1  0
 20 47  1  0
 21 48  1  0
 23 49  1  0
 23 50  1  0
 24 51  1  0
 25 52  1  0
 26 53  1  0
 27 54  1  0
 27 55  1  0
 28 56  1  0
 29 57  1  0
 33 58  1  0
M  END
>  <Energy>  (1054) 
2763.4265842910231

>  <compound_id>  (1054) 
4080

>  <target_id>  (1054) 
1

>  <reference_id>  (1054) 
158

>  <inspiration_ids>  (1054) 
[158, 198]

>  <energy_score>  (1054) 
2647.9512218175887

>  <distance_score>  (1054) 
2.561900293183301

>  <path>  (1054) 
/opt/xchem-fragalysis-2/maxwin/BulkDock/SCRATCH/505735/C4080-P158/C4080-P158.minimised.mol

>  <scratch_subdir>  (1054) 
/opt/xchem-fragalysis-2/maxwin/BulkDock/SCRATCH/505735/C4080-P158

>  <fragmenstein_runtime>  (1054) 
13.771694421768188

>  <fragmenstein_outcome>  (1054) 
too moved

>  <fragmenstein_mode>  (1054) 
expansion

>  <fragmenstein_error>  (1054) 


$$$$
C4080-P198
     RDKit          3D

 58 62  0  0  0  0  0  0  0  0999 V2000
   -0.3542   -6.8023   35.3415 O   0  0  0  0  0  0  0  0  0  0  0  0
    0.2199   -5.8070   35.5784 C   0  0  0  0  0  0  0  0  0  0  0  0
    0.7851   -5.3039   36.8710 N   0  0  0  0  0  0  0  0  0  0  0  0
    0.8683   -5.8997   38.0998 C   0  0  0  0  0  0  0  0  0  0  0  0
    1.3836   -5.4113   39.3140 C   0  0  0  0  0  0  0  0  0  0  0  0
    1.3423   -6.3227   40.2925 N   0  0  0  0  0  0  0  0  0  0  0  0
    0.8175   -7.4089   39.6926 N   0  0  0  0  0  0  0  0  0  0  0  0
    0.5134   -7.1944   38.3803 C   0  0  0  0  0  0  0  0  0  0  0  0
    0.6878   -4.7174   34.6557 N   0  0  0  0  0  0  0  0  0  0  0  0
    0.6561   -4.6289   33.2857 C   0  0  0  0  0  0  0  0  0  0  0  0
    1.5316   -3.4806   32.4895 C   0  0  0  0  0  0  0  0  0  0  0  0
    2.2328   -2.3170   33.0924 C   0  0  0  0  0  0  0  0  0  0  0  0
    3.4114   -2.1577   32.7955 O   0  0  0  0  0  0  0  0  0  0  0  0
    1.5568   -1.5490   34.0186 N   0  0  0  0  0  0  0  0  0  0  0  0
    0.7714   -0.3120   34.0109 C   0  0  0  0  0  0  0  0  0  0  0  0
   -0.8315   -0.3924   34.6844 C   0  0  0  0  0  0  0  0  0  0  0  0
   -1.6822    0.2196   33.6099 C   0  0  0  0  0  0  0  0  0  0  0  0
   -0.8585   -0.1403   32.4007 C   0  0  0  0  0  0  0  0  0  0  0  0
   -1.1976   -1.4570   31.7646 C   0  0  0  0  0  0  0  0  0  0  0  0
   -1.7470   -2.5025   32.4611 C   0  0  0  0  0  0  0  0  0  0  0  0
   -1.2465   -3.7845   32.2284 C   0  0  0  0  0  0  0  0  0  0  0  0
   -0.1032   -4.0891   31.3127 C   0  0  0  0  0  0  0  0  0  0  0  0
    1.5885   -5.3957   31.6470 C   0  0  0  0  0  0  0  0  0  0  0  0
    1.8024   -6.5633   32.6791 O   0  0  0  0  0  0  0  0  0  0  0  0
   -0.3422   -3.0621   30.2331 C   0  0  0  0  0  0  0  0  0  0  0  0
   -0.7650   -1.7534   30.4983 C   0  0  0  0  0  0  0  0  0  0  0  0
    0.7856   -0.1404   33.0872 C   0  0  0  0  0  0  0  0  0  0  0  0
    1.9035   -3.6814   30.6119 C   0  0  0  0  0  0  0  0  0  0  0  0
    1.1738   -4.8533   29.7077 C   0  0  0  0  0  0  0  0  0  0  0  0
    0.0069   -6.0335   30.5160 C   0  0  0  0  0  0  0  0  0  0  0  0
   -0.5917   -7.1631   30.2018 N   0  0  0  0  0  0  0  0  0  0  0  0
   -1.2143   -7.7064   31.3389 N   0  0  0  0  0  0  0  0  0  0  0  0
   -0.9967   -7.0427   32.4679 C   0  0  0  0  0  0  0  0  0  0  0  0
   -0.2109   -5.9237   32.2890 N   0  0  0  0  0  0  0  0  0  0  0  0
    1.2854   -4.4520   36.7051 H   0  0  0  0  0  0  0  0  0  0  0  0
    1.7906   -4.4339   39.5348 H   0  0  0  0  0  0  0  0  0  0  0  0
    0.7138   -8.2692   40.2256 H   0  0  0  0  0  0  0  0  0  0  0  0
    0.1255   -7.9925   37.7644 H   0  0  0  0  0  0  0  0  0  0  0  0
    1.0753   -3.9657   35.1976 H   0  0  0  0  0  0  0  0  0  0  0  0
    0.9774   -0.5050   35.1428 H   0  0  0  0  0  0  0  0  0  0  0  0
    1.3338    0.6991   34.5321 H   0  0  0  0  0  0  0  0  0  0  0  0
   -1.0682   -1.4370   34.9119 H   0  0  0  0  0  0  0  0  0  0  0  0
   -0.8838    0.1959   35.6094 H   0  0  0  0  0  0  0  0  0  0  0  0
   -1.6863    1.3058   33.7459 H   0  0  0  0  0  0  0  0  0  0  0  0
   -2.7206   -0.1209   33.6077 H   0  0  0  0  0  0  0  0  0  0  0  0
   -0.9016    0.6660   31.6580 H   0  0  0  0  0  0  0  0  0  0  0  0
   -2.3652   -2.3663   33.3449 H   0  0  0  0  0  0  0  0  0  0  0  0
   -1.6224   -4.4562   33.0044 H   0  0  0  0  0  0  0  0  0  0  0  0
    2.6056   -4.9683   31.9145 H   0  0  0  0  0  0  0  0  0  0  0  0
    2.0165   -6.0470   30.8330 H   0  0  0  0  0  0  0  0  0  0  0  0
    1.6196   -7.3877   32.1840 H   0  0  0  0  0  0  0  0  0  0  0  0
   -0.0003   -3.1384   29.1960 H   0  0  0  0  0  0  0  0  0  0  0  0
   -0.5710   -0.9794   29.7584 H   0  0  0  0  0  0  0  0  0  0  0  0
    1.1839   -0.5597   32.0780 H   0  0  0  0  0  0  0  0  0  0  0  0
    1.4358    0.8267   32.7513 H   0  0  0  0  0  0  0  0  0  0  0  0
    2.6273   -2.9634   30.2300 H   0  0  0  0  0  0  0  0  0  0  0  0
    1.3712   -5.0172   28.6548 H   0  0  0  0  0  0  0  0  0  0  0  0
   -1.3804   -7.3386   33.4301 H   0  0  0  0  0  0  0  0  0  0  0  0
  1  2  2  0
  2  3  1  0
  3  4  1  0
  4  5  1  0
  5  6  2  0
  6  7  1  0
  7  8  1  0
  2  9  1  0
  9 10  1  0
 10 11  2  0
 11 12  1  0
 12 13  2  0
 12 14  1  0
 14 15  1  0
 15 16  1  0
 16 17  1  0
 17 18  1  0
 18 19  1  0
 19 20  2  0
 20 21  1  0
 21 22  2  0
 22 23  1  0
 23 24  1  0
 22 25  1  0
 25 26  2  0
 18 27  1  0
 11 28  1  0
 28 29  2  0
 29 30  1  0
 30 31  2  0
 31 32  1  0
 32 33  2  0
 33 34  1  0
  8  4  2  0
 34 10  1  0
 27 14  1  0
 34 30  1  0
 26 19  1  0
  3 35  1  0
  5 36  1  0
  7 37  1  0
  8 38  1  0
  9 39  1  0
 15 40  1  0
 15 41  1  0
 16 42  1  0
 16 43  1  0
 17 44  1  0
 17 45  1  0
 18 46  1  0
 20 47  1  0
 21 48  1  0
 23 49  1  0
 23 50  1  0
 24 51  1  0
 25 52  1  0
 26 53  1  0
 27 54  1  0
 27 55  1  0
 28 56  1  0
 29 57  1  0
 33 58  1  0
M  END
>  <Energy>  (1055) 
1708.3804857253544

>  <compound_id>  (1055) 
4080

>  <target_id>  (1055) 
1

>  <reference_id>  (1055) 
198

>  <inspiration_ids>  (1055) 
[158, 198]

>  <energy_score>  (1055) 
1592.9051232519357

>  <distance_score>  (1055) 
3.326228647489489

>  <path>  (1055) 
/opt/xchem-fragalysis-2/maxwin/BulkDock/SCRATCH/505735/C4080-P198/C4080-P198.minimised.mol

>  <scratch_subdir>  (1055) 
/opt/xchem-fragalysis-2/maxwin/BulkDock/SCRATCH/505735/C4080-P198

>  <fragmenstein_runtime>  (1055) 
17.35010290145874

>  <fragmenstein_outcome>  (1055) 
too moved

>  <fragmenstein_mode>  (1055) 
expansion

>  <fragmenstein_error>  (1055) 


$$$$
C4474-P158
     RDKit          3D

 48 52  0  0  0  0  0  0  0  0999 V2000
   -0.5745   -8.0691   36.1411 O   0  0  0  0  0  0  0  0  0  0  0  0
   -0.3682   -6.9551   36.2245 C   0  0  0  0  0  0  0  0  0  0  0  0
   -0.1088   -6.0734   37.4792 N   0  0  0  0  0  0  0  0  0  0  0  0
    0.0269   -6.4218   38.7865 C   0  0  0  0  0  0  0  0  0  0  0  0
    0.2119   -7.7128   39.3185 C   0  0  0  0  0  0  0  0  0  0  0  0
    0.3404   -7.6973   40.6478 N   0  0  0  0  0  0  0  0  0  0  0  0
    0.1966   -6.3990   40.9572 N   0  0  0  0  0  0  0  0  0  0  0  0
    0.0487   -5.5849   39.8683 C   0  0  0  0  0  0  0  0  0  0  0  0
   -0.1615   -5.8896   35.1169 N   0  0  0  0  0  0  0  0  0  0  0  0
   -0.0839   -6.0279   33.7614 C   0  0  0  0  0  0  0  0  0  0  0  0
    0.7791   -5.2288   33.1108 C   0  0  0  0  0  0  0  0  0  0  0  0
    1.0331   -5.3912   31.6832 C   0  0  0  0  0  0  0  0  0  0  0  0
    2.0095   -4.6125   31.0964 N   0  0  0  0  0  0  0  0  0  0  0  0
    2.2468   -3.2360   31.5181 C   0  0  0  0  0  0  0  0  0  0  0  0
    0.9888   -2.4679   31.4706 C   0  0  0  0  0  0  0  0  0  0  0  0
    0.3336   -1.8340   32.4197 N   0  0  0  0  0  0  0  0  0  0  0  0
   -0.6848   -1.1350   31.8019 N   0  0  0  0  0  0  0  0  0  0  0  0
   -0.5627   -1.3446   30.5079 C   0  0  0  0  0  0  0  0  0  0  0  0
   -0.7758   -0.4522   29.3995 C   0  0  0  0  0  0  0  0  0  0  0  0
   -0.2911    0.8544   29.5096 C   0  0  0  0  0  0  0  0  0  0  0  0
   -0.1998    1.6615   28.3797 C   0  0  0  0  0  0  0  0  0  0  0  0
   -0.6604    1.2012   27.1579 C   0  0  0  0  0  0  0  0  0  0  0  0
   -1.1258   -0.1008   27.0515 C   0  0  0  0  0  0  0  0  0  0  0  0
   -1.1691   -0.9426   28.1572 C   0  0  0  0  0  0  0  0  0  0  0  0
    0.2616   -2.4113   30.3212 N   0  0  0  0  0  0  0  0  0  0  0  0
    0.3198   -6.2856   30.9813 C   0  0  0  0  0  0  0  0  0  0  0  0
   -0.6221   -7.1060   31.6282 C   0  0  0  0  0  0  0  0  0  0  0  0
   -1.4198   -8.0242   31.1461 N   0  0  0  0  0  0  0  0  0  0  0  0
   -2.1155   -8.5332   32.1996 N   0  0  0  0  0  0  0  0  0  0  0  0
   -1.7206   -7.9254   33.2996 C   0  0  0  0  0  0  0  0  0  0  0  0
   -0.7748   -6.9879   33.0055 N   0  0  0  0  0  0  0  0  0  0  0  0
   -0.0426   -5.1105   37.2076 H   0  0  0  0  0  0  0  0  0  0  0  0
    0.2659   -8.6529   38.7869 H   0  0  0  0  0  0  0  0  0  0  0  0
    0.2252   -6.1350   41.9363 H   0  0  0  0  0  0  0  0  0  0  0  0
   -0.0535   -4.5160   39.9786 H   0  0  0  0  0  0  0  0  0  0  0  0
    0.0833   -5.0086   35.5361 H   0  0  0  0  0  0  0  0  0  0  0  0
    1.3569   -4.4974   33.6643 H   0  0  0  0  0  0  0  0  0  0  0  0
    2.0689   -4.7281   30.0885 H   0  0  0  0  0  0  0  0  0  0  0  0
    2.9809   -2.7841   30.8408 H   0  0  0  0  0  0  0  0  0  0  0  0
    2.6951   -3.2022   32.5167 H   0  0  0  0  0  0  0  0  0  0  0  0
    0.0889    1.2209   30.4612 H   0  0  0  0  0  0  0  0  0  0  0  0
    0.2404    2.6533   28.4411 H   0  0  0  0  0  0  0  0  0  0  0  0
   -0.6352    1.8482   26.2854 H   0  0  0  0  0  0  0  0  0  0  0  0
   -1.4639   -0.4667   26.0893 H   0  0  0  0  0  0  0  0  0  0  0  0
   -1.5223   -1.9631   28.0244 H   0  0  0  0  0  0  0  0  0  0  0  0
    0.5531   -2.7640   29.4230 H   0  0  0  0  0  0  0  0  0  0  0  0
    0.4594   -6.4198   29.9210 H   0  0  0  0  0  0  0  0  0  0  0  0
   -2.0937   -8.1328   34.2917 H   0  0  0  0  0  0  0  0  0  0  0  0
  1  2  2  0
  2  3  1  0
  3  4  1  0
  4  5  1  0
  5  6  2  0
  6  7  1  0
  7  8  1  0
  2  9  1  0
  9 10  1  0
 10 11  2  0
 11 12  1  0
 12 13  1  0
 13 14  1  0
 14 15  1  0
 15 16  2  0
 16 17  1  0
 17 18  2  0
 18 19  1  0
 19 20  2  0
 20 21  1  0
 21 22  2  0
 22 23  1  0
 23 24  2  0
 18 25  1  0
 12 26  2  0
 26 27  1  0
 27 28  2  0
 28 29  1  0
 29 30  2  0
 30 31  1  0
  8  4  2  0
 31 10  1  0
 25 15  1  0
 31 27  1  0
 24 19  1  0
  3 32  1  0
  5 33  1  0
  7 34  1  0
  8 35  1  0
  9 36  1  0
 11 37  1  0
 13 38  1  0
 14 39  1  0
 14 40  1  0
 20 41  1  0
 21 42  1  0
 22 43  1  0
 23 44  1  0
 24 45  1  0
 25 46  1  0
 26 47  1  0
 30 48  1  0
M  END
>  <Energy>  (1056) 
49.302743967879231

>  <compound_id>  (1056) 
4474

>  <target_id>  (1056) 
1

>  <reference_id>  (1056) 
158

>  <inspiration_ids>  (1056) 
[158, 199]

>  <energy_score>  (1056) 
-27.197558814982557

>  <distance_score>  (1056) 
1.1243086141096188

>  <path>  (1056) 
/opt/xchem-fragalysis-2/maxwin/BulkDock/SCRATCH/505735/C4474-P158/C4474-P158.minimised.mol

>  <scratch_subdir>  (1056) 
/opt/xchem-fragalysis-2/maxwin/BulkDock/SCRATCH/505735/C4474-P158

>  <fragmenstein_runtime>  (1056) 
11.169612646102905

>  <fragmenstein_outcome>  (1056) 
too moved

>  <fragmenstein_mode>  (1056) 
expansion

>  <fragmenstein_error>  (1056) 


$$$$
C4474-P199
     RDKit          3D

 48 52  0  0  0  0  0  0  0  0999 V2000
    2.4115   -6.8334   35.9760 O   0  0  0  0  0  0  0  0  0  0  0  0
    1.2742   -6.9352   36.0358 C   0  0  0  0  0  0  0  0  0  0  0  0
    0.3336   -7.0143   37.2782 N   0  0  0  0  0  0  0  0  0  0  0  0
    0.6296   -7.0729   38.6040 C   0  0  0  0  0  0  0  0  0  0  0  0
    1.8296   -7.4581   39.2215 C   0  0  0  0  0  0  0  0  0  0  0  0
    1.7335   -7.4529   40.5550 N   0  0  0  0  0  0  0  0  0  0  0  0
    0.4853   -7.0109   40.7789 N   0  0  0  0  0  0  0  0  0  0  0  0
   -0.2100   -6.7458   39.6362 C   0  0  0  0  0  0  0  0  0  0  0  0
    0.1983   -6.9321   34.8993 N   0  0  0  0  0  0  0  0  0  0  0  0
    0.3310   -6.7174   33.5585 C   0  0  0  0  0  0  0  0  0  0  0  0
    1.3047   -5.9230   33.0827 C   0  0  0  0  0  0  0  0  0  0  0  0
    1.3378   -5.5658   31.6646 C   0  0  0  0  0  0  0  0  0  0  0  0
    2.1686   -4.5239   31.2927 N   0  0  0  0  0  0  0  0  0  0  0  0
    2.0209   -3.2396   31.9920 C   0  0  0  0  0  0  0  0  0  0  0  0
    0.6944   -2.6391   31.7110 C   0  0  0  0  0  0  0  0  0  0  0  0
   -0.5012   -3.0487   32.0866 N   0  0  0  0  0  0  0  0  0  0  0  0
   -1.4342   -2.3458   31.3562 N   0  0  0  0  0  0  0  0  0  0  0  0
   -0.7793   -1.4856   30.6045 C   0  0  0  0  0  0  0  0  0  0  0  0
   -1.2433   -0.6263   29.5445 C   0  0  0  0  0  0  0  0  0  0  0  0
   -0.8095    0.7024   29.4602 C   0  0  0  0  0  0  0  0  0  0  0  0
   -1.1390    1.4790   28.3507 C   0  0  0  0  0  0  0  0  0  0  0  0
   -1.8817    0.9233   27.3163 C   0  0  0  0  0  0  0  0  0  0  0  0
   -2.2802   -0.4084   27.3875 C   0  0  0  0  0  0  0  0  0  0  0  0
   -1.9882   -1.1748   28.5087 C   0  0  0  0  0  0  0  0  0  0  0  0
    0.5570   -1.6078   30.8449 N   0  0  0  0  0  0  0  0  0  0  0  0
    0.5237   -6.1876   30.7905 C   0  0  0  0  0  0  0  0  0  0  0  0
   -0.4015   -7.1416   31.2582 C   0  0  0  0  0  0  0  0  0  0  0  0
   -1.2257   -7.9496   30.6331 N   0  0  0  0  0  0  0  0  0  0  0  0
   -1.9450   -8.6086   31.5880 N   0  0  0  0  0  0  0  0  0  0  0  0
   -1.5331   -8.1957   32.7650 C   0  0  0  0  0  0  0  0  0  0  0  0
   -0.5243   -7.2997   32.6268 N   0  0  0  0  0  0  0  0  0  0  0  0
   -0.6235   -7.0183   36.9775 H   0  0  0  0  0  0  0  0  0  0  0  0
    2.7564   -7.7720   38.7589 H   0  0  0  0  0  0  0  0  0  0  0  0
    0.1824   -6.8935   41.7400 H   0  0  0  0  0  0  0  0  0  0  0  0
   -1.2019   -6.3246   39.6752 H   0  0  0  0  0  0  0  0  0  0  0  0
   -0.7091   -7.1258   35.2907 H   0  0  0  0  0  0  0  0  0  0  0  0
    2.0322   -5.4672   33.7461 H   0  0  0  0  0  0  0  0  0  0  0  0
    2.1179   -4.3678   30.2872 H   0  0  0  0  0  0  0  0  0  0  0  0
    2.1663   -3.3444   33.0724 H   0  0  0  0  0  0  0  0  0  0  0  0
    2.8220   -2.5761   31.6448 H   0  0  0  0  0  0  0  0  0  0  0  0
   -0.2184    1.1492   30.2556 H   0  0  0  0  0  0  0  0  0  0  0  0
   -0.8248    2.5183   28.2921 H   0  0  0  0  0  0  0  0  0  0  0  0
   -2.1498    1.5220   26.4500 H   0  0  0  0  0  0  0  0  0  0  0  0
   -2.8071   -0.8714   26.5569 H   0  0  0  0  0  0  0  0  0  0  0  0
   -2.2996   -2.2142   28.5415 H   0  0  0  0  0  0  0  0  0  0  0  0
    1.2872   -1.1301   30.3381 H   0  0  0  0  0  0  0  0  0  0  0  0
    0.5066   -5.9257   29.7424 H   0  0  0  0  0  0  0  0  0  0  0  0
   -1.9183   -8.5113   33.7189 H   0  0  0  0  0  0  0  0  0  0  0  0
  1  2  2  0
  2  3  1  0
  3  4  1  0
  4  5  1  0
  5  6  2  0
  6  7  1  0
  7  8  1  0
  2  9  1  0
  9 10  1  0
 10 11  2  0
 11 12  1  0
 12 13  1  0
 13 14  1  0
 14 15  1  0
 15 16  2  0
 16 17  1  0
 17 18  2  0
 18 19  1  0
 19 20  2  0
 20 21  1  0
 21 22  2  0
 22 23  1  0
 23 24  2  0
 18 25  1  0
 12 26  2  0
 26 27  1  0
 27 28  2  0
 28 29  1  0
 29 30  2  0
 30 31  1  0
  8  4  2  0
 31 10  1  0
 25 15  1  0
 31 27  1  0
 24 19  1  0
  3 32  1  0
  5 33  1  0
  7 34  1  0
  8 35  1  0
  9 36  1  0
 11 37  1  0
 13 38  1  0
 14 39  1  0
 14 40  1  0
 20 41  1  0
 21 42  1  0
 22 43  1  0
 23 44  1  0
 24 45  1  0
 25 46  1  0
 26 47  1  0
 30 48  1  0
M  END
>  <Energy>  (1057) 
46.153198808445659

>  <compound_id>  (1057) 
4474

>  <target_id>  (1057) 
1

>  <reference_id>  (1057) 
199

>  <inspiration_ids>  (1057) 
[158, 199]

>  <energy_score>  (1057) 
-30.34710397441654

>  <distance_score>  (1057) 
1.1431410689182457

>  <path>  (1057) 
/opt/xchem-fragalysis-2/maxwin/BulkDock/SCRATCH/505735/C4474-P199/C4474-P199.minimised.mol

>  <scratch_subdir>  (1057) 
/opt/xchem-fragalysis-2/maxwin/BulkDock/SCRATCH/505735/C4474-P199

>  <fragmenstein_runtime>  (1057) 
9.982160806655884

>  <fragmenstein_outcome>  (1057) 
too moved

>  <fragmenstein_mode>  (1057) 
expansion

>  <fragmenstein_error>  (1057) 


$$$$
C4479-P159
     RDKit          3D

 44 47  0  0  0  0  0  0  0  0999 V2000
   -1.7031   -7.0734   33.4927 N   0  0  0  0  0  0  0  0  0  0  0  0
   -1.1614   -6.9114   32.2727 C   0  0  0  0  0  0  0  0  0  0  0  0
   -1.0515   -7.8419   31.3542 N   0  0  0  0  0  0  0  0  0  0  0  0
   -0.2371   -7.3524   30.3654 N   0  0  0  0  0  0  0  0  0  0  0  0
    0.1126   -6.1264   30.6991 C   0  0  0  0  0  0  0  0  0  0  0  0
   -0.6204   -5.7354   31.7856 N   0  0  0  0  0  0  0  0  0  0  0  0
   -0.6096   -4.3560   32.3374 C   0  0  0  0  0  0  0  0  0  0  0  0
   -0.2571   -4.4977   33.7468 N   0  0  0  0  0  0  0  0  0  0  0  0
    0.8556   -5.3663   34.4328 C   0  0  0  0  0  0  0  0  0  0  0  0
    1.6772   -6.0143   33.9693 O   0  0  0  0  0  0  0  0  0  0  0  0
    0.4468   -5.1699   35.9371 N   0  0  0  0  0  0  0  0  0  0  0  0
    0.9088   -5.7939   37.0743 C   0  0  0  0  0  0  0  0  0  0  0  0
    1.9562   -6.7330   37.2195 C   0  0  0  0  0  0  0  0  0  0  0  0
    1.9960   -7.2800   38.4386 N   0  0  0  0  0  0  0  0  0  0  0  0
    0.9658   -6.7043   39.0795 N   0  0  0  0  0  0  0  0  0  0  0  0
    0.2975   -5.7852   38.3090 C   0  0  0  0  0  0  0  0  0  0  0  0
   -0.0214   -3.2845   31.2500 C   0  0  0  0  0  0  0  0  0  0  0  0
    1.3015   -3.9052   30.7426 C   0  0  0  0  0  0  0  0  0  0  0  0
    1.1021   -5.2439   30.0381 C   0  0  0  0  0  0  0  0  0  0  0  0
    0.2614   -1.8517   31.8150 C   0  0  0  0  0  0  0  0  0  0  0  0
    0.6374   -0.7940   30.8384 N   0  0  0  0  0  0  0  0  0  0  0  0
   -0.1447   -0.8436   29.5894 C   0  0  0  0  0  0  0  0  0  0  0  0
   -1.3620   -1.7685   29.6825 C   0  0  0  0  0  0  0  0  0  0  0  0
   -1.0269   -3.1467   30.1132 N   0  0  0  0  0  0  0  0  0  0  0  0
   -1.7672   -8.0465   33.7906 H   0  0  0  0  0  0  0  0  0  0  0  0
   -1.4038   -6.4671   34.2459 H   0  0  0  0  0  0  0  0  0  0  0  0
   -1.6638   -4.0746   32.3989 H   0  0  0  0  0  0  0  0  0  0  0  0
   -0.8713   -4.1162   34.4489 H   0  0  0  0  0  0  0  0  0  0  0  0
   -0.3724   -4.5919   35.9926 H   0  0  0  0  0  0  0  0  0  0  0  0
    2.6711   -7.0613   36.4758 H   0  0  0  0  0  0  0  0  0  0  0  0
    0.7748   -6.9878   40.0362 H   0  0  0  0  0  0  0  0  0  0  0  0
   -0.5680   -5.2701   38.7001 H   0  0  0  0  0  0  0  0  0  0  0  0
    1.9789   -4.0478   31.5957 H   0  0  0  0  0  0  0  0  0  0  0  0
    1.8195   -3.2272   30.0533 H   0  0  0  0  0  0  0  0  0  0  0  0
    2.0660   -5.7523   29.9543 H   0  0  0  0  0  0  0  0  0  0  0  0
    0.7882   -5.0360   29.0165 H   0  0  0  0  0  0  0  0  0  0  0  0
   -0.6298   -1.5026   32.3533 H   0  0  0  0  0  0  0  0  0  0  0  0
    1.0541   -1.9070   32.5712 H   0  0  0  0  0  0  0  0  0  0  0  0
    1.6270   -0.8689   30.6035 H   0  0  0  0  0  0  0  0  0  0  0  0
   -0.4623    0.1713   29.3288 H   0  0  0  0  0  0  0  0  0  0  0  0
    0.5079   -1.1960   28.7811 H   0  0  0  0  0  0  0  0  0  0  0  0
   -1.8656   -1.8160   28.7106 H   0  0  0  0  0  0  0  0  0  0  0  0
   -2.0941   -1.3546   30.3869 H   0  0  0  0  0  0  0  0  0  0  0  0
   -0.7321   -3.6515   29.2745 H   0  0  0  0  0  0  0  0  0  0  0  0
  1  2  1  0
  2  3  2  0
  3  4  1  0
  4  5  2  0
  5  6  1  0
  6  7  1  0
  7  8  1  0
  8  9  1  0
  9 10  2  0
  9 11  1  0
 11 12  1  0
 12 13  1  0
 13 14  2  0
 14 15  1  0
 15 16  1  0
  7 17  1  0
 17 18  1  0
 18 19  1  0
 17 20  1  0
 20 21  1  0
 21 22  1  0
 22 23  1  0
 23 24  1  0
  6  2  1  0
 16 12  2  0
 24 17  1  0
 19  5  1  0
  1 25  1  0
  1 26  1  0
  7 27  1  0
  8 28  1  0
 11 29  1  0
 13 30  1  0
 15 31  1  0
 16 32  1  0
 18 33  1  0
 18 34  1  0
 19 35  1  0
 19 36  1  0
 20 37  1  0
 20 38  1  0
 21 39  1  0
 22 40  1  0
 22 41  1  0
 23 42  1  0
 23 43  1  0
 24 44  1  0
M  END
>  <Energy>  (1058) 
75.357638940738013

>  <compound_id>  (1058) 
4479

>  <target_id>  (1058) 
1

>  <reference_id>  (1058) 
159

>  <inspiration_ids>  (1058) 
[159, 13]

>  <energy_score>  (1058) 
-27.661426831777476

>  <distance_score>  (1058) 
2.5212617957534573

>  <path>  (1058) 
/opt/xchem-fragalysis-2/maxwin/BulkDock/SCRATCH/505735/C4479-P159/C4479-P159.minimised.mol

>  <scratch_subdir>  (1058) 
/opt/xchem-fragalysis-2/maxwin/BulkDock/SCRATCH/505735/C4479-P159

>  <fragmenstein_runtime>  (1058) 
12.675533056259155

>  <fragmenstein_outcome>  (1058) 
too moved

>  <fragmenstein_mode>  (1058) 
expansion

>  <fragmenstein_error>  (1058) 


$$$$
C4479-P13
     RDKit          3D

 44 47  0  0  0  0  0  0  0  0999 V2000
   -1.6568   -7.2178   33.5162 N   0  0  0  0  0  0  0  0  0  0  0  0
   -1.1735   -7.0154   32.2725 C   0  0  0  0  0  0  0  0  0  0  0  0
   -1.0587   -7.9298   31.3372 N   0  0  0  0  0  0  0  0  0  0  0  0
   -0.1915   -7.4431   30.3903 N   0  0  0  0  0  0  0  0  0  0  0  0
    0.1576   -6.2268   30.7558 C   0  0  0  0  0  0  0  0  0  0  0  0
   -0.6341   -5.8349   31.8001 N   0  0  0  0  0  0  0  0  0  0  0  0
   -0.6628   -4.4535   32.3375 C   0  0  0  0  0  0  0  0  0  0  0  0
   -0.3650   -4.5740   33.7592 N   0  0  0  0  0  0  0  0  0  0  0  0
    0.8091   -5.3070   34.4893 C   0  0  0  0  0  0  0  0  0  0  0  0
    1.7264   -5.8397   34.0618 O   0  0  0  0  0  0  0  0  0  0  0  0
    0.3056   -5.1881   35.9714 N   0  0  0  0  0  0  0  0  0  0  0  0
    0.7848   -5.7685   37.1236 C   0  0  0  0  0  0  0  0  0  0  0  0
    1.8468   -6.6878   37.2960 C   0  0  0  0  0  0  0  0  0  0  0  0
    1.8976   -7.1955   38.5335 N   0  0  0  0  0  0  0  0  0  0  0  0
    0.8659   -6.6047   39.1586 N   0  0  0  0  0  0  0  0  0  0  0  0
    0.1769   -5.7295   38.3587 C   0  0  0  0  0  0  0  0  0  0  0  0
   -0.0281   -3.3879   31.2697 C   0  0  0  0  0  0  0  0  0  0  0  0
    1.3321   -3.9941   30.8466 C   0  0  0  0  0  0  0  0  0  0  0  0
    1.2146   -5.3650   30.1795 C   0  0  0  0  0  0  0  0  0  0  0  0
    0.1974   -1.9429   31.8345 C   0  0  0  0  0  0  0  0  0  0  0  0
    0.6066   -0.8868   30.8678 N   0  0  0  0  0  0  0  0  0  0  0  0
   -0.1457   -0.9350   29.6004 C   0  0  0  0  0  0  0  0  0  0  0  0
   -1.3267   -1.9103   29.6374 C   0  0  0  0  0  0  0  0  0  0  0  0
   -0.9559   -3.2786   30.0684 N   0  0  0  0  0  0  0  0  0  0  0  0
   -1.7591   -8.2209   33.7188 H   0  0  0  0  0  0  0  0  0  0  0  0
   -1.1276   -6.8042   34.2737 H   0  0  0  0  0  0  0  0  0  0  0  0
   -1.7209   -4.1876   32.3483 H   0  0  0  0  0  0  0  0  0  0  0  0
   -1.0561   -4.2837   34.4338 H   0  0  0  0  0  0  0  0  0  0  0  0
   -0.4927   -4.5790   36.0102 H   0  0  0  0  0  0  0  0  0  0  0  0
    2.5608   -7.0318   36.5584 H   0  0  0  0  0  0  0  0  0  0  0  0
    0.6867   -6.8467   40.1284 H   0  0  0  0  0  0  0  0  0  0  0  0
   -0.6962   -5.2145   38.7323 H   0  0  0  0  0  0  0  0  0  0  0  0
    1.9682   -4.0890   31.7371 H   0  0  0  0  0  0  0  0  0  0  0  0
    1.8698   -3.3238   30.1646 H   0  0  0  0  0  0  0  0  0  0  0  0
    2.1811   -5.8759   30.2461 H   0  0  0  0  0  0  0  0  0  0  0  0
    1.0296   -5.2105   29.1165 H   0  0  0  0  0  0  0  0  0  0  0  0
   -0.7263   -1.6053   32.3234 H   0  0  0  0  0  0  0  0  0  0  0  0
    0.9514   -1.9767   32.6305 H   0  0  0  0  0  0  0  0  0  0  0  0
    1.5998   -0.9798   30.6556 H   0  0  0  0  0  0  0  0  0  0  0  0
   -0.4994    0.0728   29.3592 H   0  0  0  0  0  0  0  0  0  0  0  0
    0.5395   -1.2376   28.7989 H   0  0  0  0  0  0  0  0  0  0  0  0
   -1.7893   -1.9651   28.6461 H   0  0  0  0  0  0  0  0  0  0  0  0
   -2.0990   -1.5320   30.3179 H   0  0  0  0  0  0  0  0  0  0  0  0
   -0.5753   -3.7591   29.2506 H   0  0  0  0  0  0  0  0  0  0  0  0
  1  2  1  0
  2  3  2  0
  3  4  1  0
  4  5  2  0
  5  6  1  0
  6  7  1  0
  7  8  1  0
  8  9  1  0
  9 10  2  0
  9 11  1  0
 11 12  1  0
 12 13  1  0
 13 14  2  0
 14 15  1  0
 15 16  1  0
  7 17  1  0
 17 18  1  0
 18 19  1  0
 17 20  1  0
 20 21  1  0
 21 22  1  0
 22 23  1  0
 23 24  1  0
  6  2  1  0
 16 12  2  0
 24 17  1  0
 19  5  1  0
  1 25  1  0
  1 26  1  0
  7 27  1  0
  8 28  1  0
 11 29  1  0
 13 30  1  0
 15 31  1  0
 16 32  1  0
 18 33  1  0
 18 34  1  0
 19 35  1  0
 19 36  1  0
 20 37  1  0
 20 38  1  0
 21 39  1  0
 22 40  1  0
 22 41  1  0
 23 42  1  0
 23 43  1  0
 24 44  1  0
M  END
>  <Energy>  (1059) 
72.834467429750575

>  <compound_id>  (1059) 
4479

>  <target_id>  (1059) 
1

>  <reference_id>  (1059) 
13

>  <inspiration_ids>  (1059) 
[159, 13]

>  <energy_score>  (1059) 
-30.184598342761035

>  <distance_score>  (1059) 
2.543421026660131

>  <path>  (1059) 
/opt/xchem-fragalysis-2/maxwin/BulkDock/SCRATCH/505735/C4479-P13/C4479-P13.minimised.mol

>  <scratch_subdir>  (1059) 
/opt/xchem-fragalysis-2/maxwin/BulkDock/SCRATCH/505735/C4479-P13

>  <fragmenstein_runtime>  (1059) 
15.91708517074585

>  <fragmenstein_outcome>  (1059) 
too moved

>  <fragmenstein_mode>  (1059) 
expansion

>  <fragmenstein_error>  (1059) 


$$$$
C4479-P159
     RDKit          2D

  0  0  0  0  0  0  0  0  0  0999 V2000
M  END
>  <compound_id>  (1060) 
4479

>  <target_id>  (1060) 
1

>  <reference_id>  (1060) 
159

>  <inspiration_ids>  (1060) 
[159, 25]

>  <energy_score>  (1060) 
nan

>  <distance_score>  (1060) 
nan

>  <path>  (1060) 
/opt/xchem-fragalysis-2/maxwin/BulkDock/SCRATCH/505735/C4479-P159/C4479-P159.minimised.mol

>  <scratch_subdir>  (1060) 
/opt/xchem-fragalysis-2/maxwin/BulkDock/SCRATCH/505735/C4479-P159

>  <fragmenstein_runtime>  (1060) 
0.19277548789978027

>  <fragmenstein_outcome>  (1060) 
too distant

>  <fragmenstein_mode>  (1060) 
expansion

>  <fragmenstein_error>  (1060) 
DistanceError: hit0+hit1

$$$$
C4480-P159
     RDKit          3D

 49 53  0  0  0  0  0  0  0  0999 V2000
    4.7997   -3.8530   32.2544 C   0  0  0  0  0  0  0  0  0  0  0  0
    4.7223   -4.2326   33.5370 C   0  0  0  0  0  0  0  0  0  0  0  0
    3.5582   -4.9503   34.1600 C   0  0  0  0  0  0  0  0  0  0  0  0
    2.6035   -4.0332   34.7530 N   0  0  0  0  0  0  0  0  0  0  0  0
    2.8164   -3.2609   35.8761 C   0  0  0  0  0  0  0  0  0  0  0  0
    4.0309   -3.2144   36.6708 C   0  0  0  0  0  0  0  0  0  0  0  0
    4.4413   -4.2980   37.4518 C   0  0  0  0  0  0  0  0  0  0  0  0
    5.6185   -4.2066   38.1913 C   0  0  0  0  0  0  0  0  0  0  0  0
    6.3472   -3.0300   38.1252 C   0  0  0  0  0  0  0  0  0  0  0  0
    5.9774   -1.9605   37.3881 N   0  0  0  0  0  0  0  0  0  0  0  0
    4.8187   -2.0692   36.6943 C   0  0  0  0  0  0  0  0  0  0  0  0
    1.7184   -2.5794   36.1235 N   0  0  0  0  0  0  0  0  0  0  0  0
    0.7630   -2.9450   35.2104 N   0  0  0  0  0  0  0  0  0  0  0  0
    1.2892   -3.8218   34.3787 C   0  0  0  0  0  0  0  0  0  0  0  0
    0.6426   -4.6380   33.3947 C   0  0  0  0  0  0  0  0  0  0  0  0
    0.7050   -4.4189   31.9443 C   0  0  0  0  0  0  0  0  0  0  0  0
    0.1962   -5.3004   31.0600 C   0  0  0  0  0  0  0  0  0  0  0  0
   -0.4508   -6.4729   31.5312 C   0  0  0  0  0  0  0  0  0  0  0  0
   -1.0387   -7.4789   30.9183 N   0  0  0  0  0  0  0  0  0  0  0  0
   -1.5547   -8.3128   31.8819 N   0  0  0  0  0  0  0  0  0  0  0  0
   -1.2579   -7.8013   33.0573 C   0  0  0  0  0  0  0  0  0  0  0  0
   -0.5431   -6.6430   32.9029 N   0  0  0  0  0  0  0  0  0  0  0  0
   -0.0084   -5.7461   33.8359 C   0  0  0  0  0  0  0  0  0  0  0  0
   -0.0105   -6.0506   35.1623 N   0  0  0  0  0  0  0  0  0  0  0  0
    0.7263   -7.1797   35.9372 C   0  0  0  0  0  0  0  0  0  0  0  0
    1.3670   -8.0415   35.5512 O   0  0  0  0  0  0  0  0  0  0  0  0
    0.4184   -6.7297   37.3973 N   0  0  0  0  0  0  0  0  0  0  0  0
    0.7590   -7.2990   38.5838 C   0  0  0  0  0  0  0  0  0  0  0  0
    1.6461   -8.3578   38.8388 C   0  0  0  0  0  0  0  0  0  0  0  0
    1.7833   -8.5919   40.1451 N   0  0  0  0  0  0  0  0  0  0  0  0
    0.9003   -7.7540   40.7104 N   0  0  0  0  0  0  0  0  0  0  0  0
    0.3012   -6.9114   39.8160 C   0  0  0  0  0  0  0  0  0  0  0  0
    3.9945   -4.0213   31.5473 H   0  0  0  0  0  0  0  0  0  0  0  0
    5.6847   -3.3403   31.8847 H   0  0  0  0  0  0  0  0  0  0  0  0
    5.5714   -4.0253   34.1881 H   0  0  0  0  0  0  0  0  0  0  0  0
    3.0399   -5.5543   33.4148 H   0  0  0  0  0  0  0  0  0  0  0  0
    3.8996   -5.6421   34.9366 H   0  0  0  0  0  0  0  0  0  0  0  0
    3.8448   -5.2053   37.5091 H   0  0  0  0  0  0  0  0  0  0  0  0
    5.9541   -5.0299   38.8132 H   0  0  0  0  0  0  0  0  0  0  0  0
    7.2707   -2.9102   38.6853 H   0  0  0  0  0  0  0  0  0  0  0  0
    4.5384   -1.1810   36.1326 H   0  0  0  0  0  0  0  0  0  0  0  0
    1.1682   -3.4973   31.5976 H   0  0  0  0  0  0  0  0  0  0  0  0
    0.2329   -5.1130   29.9914 H   0  0  0  0  0  0  0  0  0  0  0  0
   -1.5262   -8.2171   34.0183 H   0  0  0  0  0  0  0  0  0  0  0  0
   -0.5568   -5.4955   35.8075 H   0  0  0  0  0  0  0  0  0  0  0  0
   -0.1187   -5.8791   37.3836 H   0  0  0  0  0  0  0  0  0  0  0  0
    2.2247   -8.9453   38.1410 H   0  0  0  0  0  0  0  0  0  0  0  0
    0.7803   -7.7937   41.7175 H   0  0  0  0  0  0  0  0  0  0  0  0
   -0.3947   -6.1517   40.1421 H   0  0  0  0  0  0  0  0  0  0  0  0
  1  2  2  0
  2  3  1  0
  3  4  1  0
  4  5  1  0
  5  6  1  0
  6  7  2  0
  7  8  1  0
  8  9  2  0
  9 10  1  0
 10 11  2  0
  5 12  2  0
 12 13  1  0
 13 14  2  0
 14 15  1  0
 15 16  1  0
 16 17  2  0
 17 18  1  0
 18 19  2  0
 19 20  1  0
 20 21  2  0
 21 22  1  0
 22 23  1  0
 23 24  1  0
 24 25  1  0
 25 26  2  0
 25 27  1  0
 27 28  1  0
 28 29  1  0
 29 30  2  0
 30 31  1  0
 31 32  1  0
 14  4  1  0
 23 15  2  0
 32 28  2  0
 11  6  1  0
 22 18  1  0
  1 33  1  0
  1 34  1  0
  2 35  1  0
  3 36  1  0
  3 37  1  0
  7 38  1  0
  8 39  1  0
  9 40  1  0
 11 41  1  0
 16 42  1  0
 17 43  1  0
 21 44  1  0
 24 45  1  0
 27 46  1  0
 29 47  1  0
 31 48  1  0
 32 49  1  0
M  END
>  <Energy>  (1061) 
80.02950788455

>  <compound_id>  (1061) 
4480

>  <target_id>  (1061) 
1

>  <reference_id>  (1061) 
159

>  <inspiration_ids>  (1061) 
[159, 41]

>  <energy_score>  (1061) 
-30.610875246484312

>  <distance_score>  (1061) 
0.7130412549029672

>  <path>  (1061) 
/opt/xchem-fragalysis-2/maxwin/BulkDock/SCRATCH/505735/C4480-P159/C4480-P159.minimised.mol

>  <scratch_subdir>  (1061) 
/opt/xchem-fragalysis-2/maxwin/BulkDock/SCRATCH/505735/C4480-P159

>  <fragmenstein_runtime>  (1061) 
10.586104393005371

>  <fragmenstein_outcome>  (1061) 
acceptable

>  <fragmenstein_mode>  (1061) 
expansion

>  <fragmenstein_error>  (1061) 


$$$$
C4480-P41
     RDKit          3D

 49 53  0  0  0  0  0  0  0  0999 V2000
    4.4567   -4.0603   31.5272 C   0  0  0  0  0  0  0  0  0  0  0  0
    4.5569   -4.0412   32.8632 C   0  0  0  0  0  0  0  0  0  0  0  0
    3.7046   -4.8386   33.8101 C   0  0  0  0  0  0  0  0  0  0  0  0
    2.7891   -3.9859   34.5466 N   0  0  0  0  0  0  0  0  0  0  0  0
    3.0978   -3.2500   35.6725 C   0  0  0  0  0  0  0  0  0  0  0  0
    4.4148   -3.1041   36.2661 C   0  0  0  0  0  0  0  0  0  0  0  0
    5.0093   -4.1318   37.0016 C   0  0  0  0  0  0  0  0  0  0  0  0
    6.2812   -3.9456   37.5395 C   0  0  0  0  0  0  0  0  0  0  0  0
    6.9159   -2.7329   37.3238 C   0  0  0  0  0  0  0  0  0  0  0  0
    6.3678   -1.7151   36.6257 N   0  0  0  0  0  0  0  0  0  0  0  0
    5.1231   -1.9155   36.1307 C   0  0  0  0  0  0  0  0  0  0  0  0
    1.9906   -2.7031   36.1282 N   0  0  0  0  0  0  0  0  0  0  0  0
    0.9529   -3.0786   35.3160 N   0  0  0  0  0  0  0  0  0  0  0  0
    1.4328   -3.8228   34.3385 C   0  0  0  0  0  0  0  0  0  0  0  0
    0.7277   -4.6030   33.3686 C   0  0  0  0  0  0  0  0  0  0  0  0
    0.7523   -4.3662   31.9208 C   0  0  0  0  0  0  0  0  0  0  0  0
    0.2190   -5.2343   31.0396 C   0  0  0  0  0  0  0  0  0  0  0  0
   -0.4175   -6.4091   31.5142 C   0  0  0  0  0  0  0  0  0  0  0  0
   -1.0378   -7.3933   30.8989 N   0  0  0  0  0  0  0  0  0  0  0  0
   -1.5440   -8.2318   31.8609 N   0  0  0  0  0  0  0  0  0  0  0  0
   -1.2046   -7.7445   33.0346 C   0  0  0  0  0  0  0  0  0  0  0  0
   -0.4671   -6.6018   32.8873 N   0  0  0  0  0  0  0  0  0  0  0  0
    0.0957   -5.7173   33.8235 C   0  0  0  0  0  0  0  0  0  0  0  0
    0.0873   -5.9949   35.1650 N   0  0  0  0  0  0  0  0  0  0  0  0
    0.4630   -7.2971   35.9251 C   0  0  0  0  0  0  0  0  0  0  0  0
    0.7539   -8.3235   35.5264 O   0  0  0  0  0  0  0  0  0  0  0  0
    0.3379   -6.7867   37.3894 N   0  0  0  0  0  0  0  0  0  0  0  0
    0.6291   -7.4047   38.5641 C   0  0  0  0  0  0  0  0  0  0  0  0
    1.2198   -8.6653   38.7659 C   0  0  0  0  0  0  0  0  0  0  0  0
    1.3827   -8.9386   40.0622 N   0  0  0  0  0  0  0  0  0  0  0  0
    0.8437   -7.8740   40.6805 N   0  0  0  0  0  0  0  0  0  0  0  0
    0.3984   -6.9097   39.8196 C   0  0  0  0  0  0  0  0  0  0  0  0
    3.7223   -4.6645   31.0057 H   0  0  0  0  0  0  0  0  0  0  0  0
    5.1226   -3.4541   30.9172 H   0  0  0  0  0  0  0  0  0  0  0  0
    5.3280   -3.4137   33.3103 H   0  0  0  0  0  0  0  0  0  0  0  0
    3.1328   -5.6073   33.2822 H   0  0  0  0  0  0  0  0  0  0  0  0
    4.3359   -5.3721   34.5274 H   0  0  0  0  0  0  0  0  0  0  0  0
    4.4870   -5.0692   37.1753 H   0  0  0  0  0  0  0  0  0  0  0  0
    6.7633   -4.7242   38.1210 H   0  0  0  0  0  0  0  0  0  0  0  0
    7.9077   -2.5396   37.7237 H   0  0  0  0  0  0  0  0  0  0  0  0
    4.7027   -1.0656   35.5980 H   0  0  0  0  0  0  0  0  0  0  0  0
    1.2078   -3.4417   31.5716 H   0  0  0  0  0  0  0  0  0  0  0  0
    0.2256   -5.0347   29.9726 H   0  0  0  0  0  0  0  0  0  0  0  0
   -1.4673   -8.1578   33.9952 H   0  0  0  0  0  0  0  0  0  0  0  0
   -0.0381   -5.2378   35.8267 H   0  0  0  0  0  0  0  0  0  0  0  0
   -0.0204   -5.8464   37.3911 H   0  0  0  0  0  0  0  0  0  0  0  0
    1.5436   -9.3896   38.0289 H   0  0  0  0  0  0  0  0  0  0  0  0
    0.8239   -7.8677   41.6955 H   0  0  0  0  0  0  0  0  0  0  0  0
   -0.0402   -5.9923   40.1846 H   0  0  0  0  0  0  0  0  0  0  0  0
  1  2  2  0
  2  3  1  0
  3  4  1  0
  4  5  1  0
  5  6  1  0
  6  7  2  0
  7  8  1  0
  8  9  2  0
  9 10  1  0
 10 11  2  0
  5 12  2  0
 12 13  1  0
 13 14  2  0
 14 15  1  0
 15 16  1  0
 16 17  2  0
 17 18  1  0
 18 19  2  0
 19 20  1  0
 20 21  2  0
 21 22  1  0
 22 23  1  0
 23 24  1  0
 24 25  1  0
 25 26  2  0
 25 27  1  0
 27 28  1  0
 28 29  1  0
 29 30  2  0
 30 31  1  0
 31 32  1  0
 14  4  1  0
 23 15  2  0
 32 28  2  0
 11  6  1  0
 22 18  1  0
  1 33  1  0
  1 34  1  0
  2 35  1  0
  3 36  1  0
  3 37  1  0
  7 38  1  0
  8 39  1  0
  9 40  1  0
 11 41  1  0
 16 42  1  0
 17 43  1  0
 21 44  1  0
 24 45  1  0
 27 46  1  0
 29 47  1  0
 31 48  1  0
 32 49  1  0
M  END
>  <Energy>  (1062) 
70.217589351718047

>  <compound_id>  (1062) 
4480

>  <target_id>  (1062) 
1

>  <reference_id>  (1062) 
41

>  <inspiration_ids>  (1062) 
[159, 41]

>  <energy_score>  (1062) 
-40.422793779315754

>  <distance_score>  (1062) 
0.703771162049394

>  <path>  (1062) 
/opt/xchem-fragalysis-2/maxwin/BulkDock/SCRATCH/505735/C4480-P41/C4480-P41.minimised.mol

>  <scratch_subdir>  (1062) 
/opt/xchem-fragalysis-2/maxwin/BulkDock/SCRATCH/505735/C4480-P41

>  <fragmenstein_runtime>  (1062) 
5.073974132537842

>  <fragmenstein_outcome>  (1062) 
acceptable

>  <fragmenstein_mode>  (1062) 
expansion

>  <fragmenstein_error>  (1062) 


$$$$
C2652-P159
     RDKit          3D

 51 55  0  0  0  0  0  0  0  0999 V2000
    2.8560   -6.8496   37.5342 O   0  0  0  0  0  0  0  0  0  0  0  0
    1.8054   -7.3526   37.3910 C   0  0  0  0  0  0  0  0  0  0  0  0
    0.9642   -8.1101   38.3584 N   0  0  0  0  0  0  0  0  0  0  0  0
    1.1364   -8.3494   39.6871 C   0  0  0  0  0  0  0  0  0  0  0  0
    2.2017   -7.9627   40.5229 C   0  0  0  0  0  0  0  0  0  0  0  0
    2.0383   -8.3904   41.7780 N   0  0  0  0  0  0  0  0  0  0  0  0
    0.8781   -9.0682   41.7291 N   0  0  0  0  0  0  0  0  0  0  0  0
    0.2745   -9.0284   40.5048 C   0  0  0  0  0  0  0  0  0  0  0  0
    0.8724   -7.3363   36.1979 N   0  0  0  0  0  0  0  0  0  0  0  0
    0.9577   -6.6608   35.0056 C   0  0  0  0  0  0  0  0  0  0  0  0
    2.0035   -5.8482   34.7706 C   0  0  0  0  0  0  0  0  0  0  0  0
    2.0164   -4.9930   33.6064 C   0  0  0  0  0  0  0  0  0  0  0  0
    1.0114   -4.9476   32.7038 C   0  0  0  0  0  0  0  0  0  0  0  0
    0.9188   -3.9520   31.7254 N   0  0  0  0  0  0  0  0  0  0  0  0
    1.6372   -2.4531   31.8288 C   0  0  0  0  0  0  0  0  0  0  0  0
    3.4436   -2.6465   31.4311 C   0  0  0  0  0  0  0  0  0  0  0  0
    3.9737   -1.8559   32.5343 C   0  0  0  0  0  0  0  0  0  0  0  0
    5.4714   -1.4005   33.0684 S   0  0  0  0  0  0  0  0  0  0  0  0
    4.7347   -0.5459   34.3895 C   0  0  0  0  0  0  0  0  0  0  0  0
    3.3507   -0.6498   34.3918 C   0  0  0  0  0  0  0  0  0  0  0  0
    2.9436   -1.4112   33.2839 C   0  0  0  0  0  0  0  0  0  0  0  0
    1.5227   -2.0390   32.6328 C   0  0  0  0  0  0  0  0  0  0  0  0
    0.9413   -1.3239   31.0845 N   0  0  0  0  0  0  0  0  0  0  0  0
    0.3064   -0.1389   31.4099 C   0  0  0  0  0  0  0  0  0  0  0  0
   -0.8921   -0.0532   31.6512 O   0  0  0  0  0  0  0  0  0  0  0  0
    1.2509    1.0765   31.4116 C   0  0  0  0  0  0  0  0  0  0  0  0
    1.0852    1.9945   32.9770 S   0  0  0  0  0  0  0  0  0  0  0  0
    0.8464    2.1222   30.0334 Cl  0  0  0  0  0  0  0  0  0  0  0  0
    0.0008   -5.9677   32.8359 C   0  0  0  0  0  0  0  0  0  0  0  0
   -0.9625   -6.3763   32.0342 N   0  0  0  0  0  0  0  0  0  0  0  0
   -1.6304   -7.4032   32.6623 N   0  0  0  0  0  0  0  0  0  0  0  0
   -1.1040   -7.5561   33.8546 C   0  0  0  0  0  0  0  0  0  0  0  0
   -0.0198   -6.7356   34.0006 N   0  0  0  0  0  0  0  0  0  0  0  0
    0.1625   -8.4732   37.8858 H   0  0  0  0  0  0  0  0  0  0  0  0
    3.0879   -7.3942   40.2706 H   0  0  0  0  0  0  0  0  0  0  0  0
    0.5559   -9.5342   42.5708 H   0  0  0  0  0  0  0  0  0  0  0  0
   -0.6676   -9.5268   40.3385 H   0  0  0  0  0  0  0  0  0  0  0  0
    0.0155   -7.8008   36.4390 H   0  0  0  0  0  0  0  0  0  0  0  0
    2.8188   -5.7050   35.4744 H   0  0  0  0  0  0  0  0  0  0  0  0
    2.8545   -4.3084   33.5849 H   0  0  0  0  0  0  0  0  0  0  0  0
    0.0085   -3.9111   31.2522 H   0  0  0  0  0  0  0  0  0  0  0  0
    1.6918   -2.7514   30.7133 H   0  0  0  0  0  0  0  0  0  0  0  0
    3.7000   -3.7080   31.4695 H   0  0  0  0  0  0  0  0  0  0  0  0
    3.6401   -2.1947   30.4522 H   0  0  0  0  0  0  0  0  0  0  0  0
    5.3630   -0.0231   35.0985 H   0  0  0  0  0  0  0  0  0  0  0  0
    2.7127   -0.2034   35.1455 H   0  0  0  0  0  0  0  0  0  0  0  0
    1.0535   -1.1267   33.2010 H   0  0  0  0  0  0  0  0  0  0  0  0
    0.7715   -2.5254   33.4424 H   0  0  0  0  0  0  0  0  0  0  0  0
    2.2914    0.7641   31.2912 H   0  0  0  0  0  0  0  0  0  0  0  0
   -0.2479    2.1294   32.8862 H   0  0  0  0  0  0  0  0  0  0  0  0
   -1.4337   -8.2629   34.6002 H   0  0  0  0  0  0  0  0  0  0  0  0
  1  2  2  0
  2  3  1  0
  3  4  1  0
  4  5  1  0
  5  6  2  0
  6  7  1  0
  7  8  1  0
  2  9  1  0
  9 10  1  0
 10 11  2  0
 11 12  1  0
 12 13  2  0
 13 14  1  0
 14 15  1  0
 15 16  1  0
 16 17  1  0
 17 18  1  0
 18 19  1  0
 19 20  2  0
 20 21  1  0
 21 22  1  0
 22 23  1  0
 23 24  1  0
 24 25  2  0
 24 26  1  0
 26 27  1  0
 26 28  1  0
 13 29  1  0
 29 30  2  0
 30 31  1  0
 31 32  2  0
 32 33  1  0
  8  4  2  0
 33 10  1  0
 23 15  1  0
 33 29  1  0
 21 17  2  0
  3 34  1  0
  5 35  1  0
  7 36  1  0
  8 37  1  0
  9 38  1  0
 11 39  1  0
 12 40  1  0
 14 41  1  0
 15 42  1  0
 16 43  1  0
 16 44  1  0
 19 45  1  0
 20 46  1  0
 22 47  1  0
 22 48  1  0
 26 49  1  0
 27 50  1  0
 32 51  1  0
M  END
>  <Energy>  (1063) 
618.65232209890223

>  <compound_id>  (1063) 
2652

>  <target_id>  (1063) 
1

>  <reference_id>  (1063) 
159

>  <inspiration_ids>  (1063) 
[159, 128]

>  <energy_score>  (1063) 
515.182043970031

>  <distance_score>  (1063) 
2.892239749692519

>  <path>  (1063) 
/opt/xchem-fragalysis-2/maxwin/BulkDock/SCRATCH/505735/C2652-P159/C2652-P159.minimised.mol

>  <scratch_subdir>  (1063) 
/opt/xchem-fragalysis-2/maxwin/BulkDock/SCRATCH/505735/C2652-P159

>  <fragmenstein_runtime>  (1063) 
10.997293949127197

>  <fragmenstein_outcome>  (1063) 
too moved

>  <fragmenstein_mode>  (1063) 
expansion

>  <fragmenstein_error>  (1063) 


$$$$
C2652-P128
     RDKit          3D

 51 55  0  0  0  0  0  0  0  0999 V2000
    3.2198   -7.2532   37.3856 O   0  0  0  0  0  0  0  0  0  0  0  0
    2.0930   -7.5507   37.2427 C   0  0  0  0  0  0  0  0  0  0  0  0
    1.1111   -8.0933   38.2246 N   0  0  0  0  0  0  0  0  0  0  0  0
    1.2215   -8.3071   39.5667 C   0  0  0  0  0  0  0  0  0  0  0  0
    2.3711   -8.2224   40.3761 C   0  0  0  0  0  0  0  0  0  0  0  0
    2.1087   -8.4959   41.6577 N   0  0  0  0  0  0  0  0  0  0  0  0
    0.7863   -8.7322   41.6625 N   0  0  0  0  0  0  0  0  0  0  0  0
    0.2084   -8.6302   40.4301 C   0  0  0  0  0  0  0  0  0  0  0  0
    1.1914   -7.3986   36.0336 N   0  0  0  0  0  0  0  0  0  0  0  0
    1.4163   -6.7945   34.8204 C   0  0  0  0  0  0  0  0  0  0  0  0
    2.6027   -6.2013   34.5822 C   0  0  0  0  0  0  0  0  0  0  0  0
    2.7703   -5.3219   33.4459 C   0  0  0  0  0  0  0  0  0  0  0  0
    1.7541   -5.0114   32.6128 C   0  0  0  0  0  0  0  0  0  0  0  0
    1.8241   -3.8999   31.7608 N   0  0  0  0  0  0  0  0  0  0  0  0
    2.2535   -2.4842   32.3592 C   0  0  0  0  0  0  0  0  0  0  0  0
    1.7835   -2.2880   34.1510 C   0  0  0  0  0  0  0  0  0  0  0  0
    0.5695   -1.4649   34.0048 C   0  0  0  0  0  0  0  0  0  0  0  0
   -0.7352   -1.0625   34.9388 S   0  0  0  0  0  0  0  0  0  0  0  0
   -1.4377   -0.2206   33.5862 C   0  0  0  0  0  0  0  0  0  0  0  0
   -0.6542   -0.2830   32.4416 C   0  0  0  0  0  0  0  0  0  0  0  0
    0.5230   -0.9836   32.7376 C   0  0  0  0  0  0  0  0  0  0  0  0
    1.9028   -1.6582   32.0113 C   0  0  0  0  0  0  0  0  0  0  0  0
    2.7621   -1.2466   31.0045 N   0  0  0  0  0  0  0  0  0  0  0  0
    2.2348   -0.0409   30.4647 C   0  0  0  0  0  0  0  0  0  0  0  0
    1.4554    0.0227   29.5210 O   0  0  0  0  0  0  0  0  0  0  0  0
    2.8470    1.2247   31.1318 C   0  0  0  0  0  0  0  0  0  0  0  0
    1.6543    2.2719   31.9944 S   0  0  0  0  0  0  0  0  0  0  0  0
    3.6729    2.1783   29.8646 Cl  0  0  0  0  0  0  0  0  0  0  0  0
    0.5642   -5.8171   32.7208 C   0  0  0  0  0  0  0  0  0  0  0  0
   -0.5098   -5.9161   31.9642 N   0  0  0  0  0  0  0  0  0  0  0  0
   -1.3605   -6.8179   32.5609 N   0  0  0  0  0  0  0  0  0  0  0  0
   -0.8102   -7.2152   33.6863 C   0  0  0  0  0  0  0  0  0  0  0  0
    0.4260   -6.6484   33.8335 N   0  0  0  0  0  0  0  0  0  0  0  0
    0.2100   -8.1602   37.7902 H   0  0  0  0  0  0  0  0  0  0  0  0
    3.3850   -7.9785   40.0846 H   0  0  0  0  0  0  0  0  0  0  0  0
    0.3433   -8.9602   42.5463 H   0  0  0  0  0  0  0  0  0  0  0  0
   -0.8443   -8.8158   40.2948 H   0  0  0  0  0  0  0  0  0  0  0  0
    0.3017   -7.8342   36.2231 H   0  0  0  0  0  0  0  0  0  0  0  0
    3.4319   -6.2284   35.2832 H   0  0  0  0  0  0  0  0  0  0  0  0
    3.7191   -4.7951   33.4019 H   0  0  0  0  0  0  0  0  0  0  0  0
    0.9435   -3.8312   31.2327 H   0  0  0  0  0  0  0  0  0  0  0  0
    3.3512   -2.7897   32.5896 H   0  0  0  0  0  0  0  0  0  0  0  0
    1.5872   -3.2586   34.6026 H   0  0  0  0  0  0  0  0  0  0  0  0
    2.6026   -1.7566   34.6479 H   0  0  0  0  0  0  0  0  0  0  0  0
   -2.4056    0.2490   33.6982 H   0  0  0  0  0  0  0  0  0  0  0  0
   -0.9433    0.1319   31.4822 H   0  0  0  0  0  0  0  0  0  0  0  0
    2.3001   -0.6653   32.5624 H   0  0  0  0  0  0  0  0  0  0  0  0
    1.0559   -1.7322   31.1672 H   0  0  0  0  0  0  0  0  0  0  0  0
    3.6311    0.9381   31.8385 H   0  0  0  0  0  0  0  0  0  0  0  0
    2.4065    3.3801   31.9548 H   0  0  0  0  0  0  0  0  0  0  0  0
   -1.2396   -7.9174   34.3861 H   0  0  0  0  0  0  0  0  0  0  0  0
  1  2  2  0
  2  3  1  0
  3  4  1  0
  4  5  1  0
  5  6  2  0
  6  7  1  0
  7  8  1  0
  2  9  1  0
  9 10  1  0
 10 11  2  0
 11 12  1  0
 12 13  2  0
 13 14  1  0
 14 15  1  0
 15 16  1  0
 16 17  1  0
 17 18  1  0
 18 19  1  0
 19 20  2  0
 20 21  1  0
 21 22  1  0
 22 23  1  0
 23 24  1  0
 24 25  2  0
 24 26  1  0
 26 27  1  0
 26 28  1  0
 13 29  1  0
 29 30  2  0
 30 31  1  0
 31 32  2  0
 32 33  1  0
  8  4  2  0
 33 10  1  0
 23 15  1  0
 33 29  1  0
 21 17  2  0
  3 34  1  0
  5 35  1  0
  7 36  1  0
  8 37  1  0
  9 38  1  0
 11 39  1  0
 12 40  1  0
 14 41  1  0
 15 42  1  0
 16 43  1  0
 16 44  1  0
 19 45  1  0
 20 46  1  0
 22 47  1  0
 22 48  1  0
 26 49  1  0
 27 50  1  0
 32 51  1  0
M  END
>  <Energy>  (1064) 
678.65621040003077

>  <compound_id>  (1064) 
2652

>  <target_id>  (1064) 
1

>  <reference_id>  (1064) 
128

>  <inspiration_ids>  (1064) 
[159, 128]

>  <energy_score>  (1064) 
575.1859322711618

>  <distance_score>  (1064) 
2.8448511552585534

>  <path>  (1064) 
/opt/xchem-fragalysis-2/maxwin/BulkDock/SCRATCH/505735/C2652-P128/C2652-P128.minimised.mol

>  <scratch_subdir>  (1064) 
/opt/xchem-fragalysis-2/maxwin/BulkDock/SCRATCH/505735/C2652-P128

>  <fragmenstein_runtime>  (1064) 
7.086336135864258

>  <fragmenstein_outcome>  (1064) 
too moved

>  <fragmenstein_mode>  (1064) 
expansion

>  <fragmenstein_error>  (1064) 


$$$$
C4488-P159
     RDKit          3D

 44 47  0  0  0  0  0  0  0  0999 V2000
    0.8316   -7.9811   35.4039 O   0  0  0  0  0  0  0  0  0  0  0  0
    0.4197   -6.9695   35.7373 C   0  0  0  0  0  0  0  0  0  0  0  0
    0.2090   -6.3907   37.1707 N   0  0  0  0  0  0  0  0  0  0  0  0
    0.5445   -6.9046   38.3875 C   0  0  0  0  0  0  0  0  0  0  0  0
    1.3154   -8.0482   38.6753 C   0  0  0  0  0  0  0  0  0  0  0  0
    1.4650   -8.2365   39.9877 N   0  0  0  0  0  0  0  0  0  0  0  0
    0.7170   -7.2668   40.5327 N   0  0  0  0  0  0  0  0  0  0  0  0
    0.1772   -6.4106   39.6116 C   0  0  0  0  0  0  0  0  0  0  0  0
   -0.1936   -5.8013   34.8950 N   0  0  0  0  0  0  0  0  0  0  0  0
   -0.3105   -5.6545   33.5447 C   0  0  0  0  0  0  0  0  0  0  0  0
   -0.0314   -4.4883   32.9282 C   0  0  0  0  0  0  0  0  0  0  0  0
    0.0319   -4.4395   31.4586 C   0  0  0  0  0  0  0  0  0  0  0  0
    0.4586   -3.1431   30.8158 C   0  0  0  0  0  0  0  0  0  0  0  0
   -0.2217   -2.7117   29.4983 C   0  0  0  0  0  0  0  0  0  0  0  0
   -1.5006   -2.0167   29.7234 N   0  0  0  0  0  0  0  0  0  0  0  0
   -1.4251   -0.4062   30.2258 S   0  0  0  0  0  0  0  0  0  0  0  0
   -2.7263   -0.0928   30.7688 O   0  0  0  0  0  0  0  0  0  0  0  0
   -0.2571   -0.2168   31.0546 O   0  0  0  0  0  0  0  0  0  0  0  0
   -1.1883    0.6810   28.8700 C   0  0  0  0  0  0  0  0  0  0  0  0
   -1.9771    1.5587   28.1542 C   0  0  0  0  0  0  0  0  0  0  0  0
   -1.1722    2.3865   27.3273 C   0  0  0  0  0  0  0  0  0  0  0  0
    0.1334    2.1404   27.3265 N   0  0  0  0  0  0  0  0  0  0  0  0
    0.4295    0.8882   28.3608 S   0  0  0  0  0  0  0  0  0  0  0  0
   -0.1836   -5.5571   30.7380 C   0  0  0  0  0  0  0  0  0  0  0  0
   -0.6321   -6.7378   31.3682 C   0  0  0  0  0  0  0  0  0  0  0  0
   -1.1139   -7.8599   30.8857 N   0  0  0  0  0  0  0  0  0  0  0  0
   -1.5364   -8.6144   31.9486 N   0  0  0  0  0  0  0  0  0  0  0  0
   -1.2653   -7.9485   33.0509 C   0  0  0  0  0  0  0  0  0  0  0  0
   -0.6772   -6.7500   32.7482 N   0  0  0  0  0  0  0  0  0  0  0  0
   -0.2502   -5.5002   37.1115 H   0  0  0  0  0  0  0  0  0  0  0  0
    1.7895   -8.7386   37.9921 H   0  0  0  0  0  0  0  0  0  0  0  0
    0.6354   -7.2378   41.5440 H   0  0  0  0  0  0  0  0  0  0  0  0
   -0.4268   -5.5697   39.9197 H   0  0  0  0  0  0  0  0  0  0  0  0
   -0.3845   -5.0140   35.4947 H   0  0  0  0  0  0  0  0  0  0  0  0
    0.2612   -3.6033   33.4867 H   0  0  0  0  0  0  0  0  0  0  0  0
    0.3915   -2.3493   31.5620 H   0  0  0  0  0  0  0  0  0  0  0  0
    1.5330   -3.2459   30.6055 H   0  0  0  0  0  0  0  0  0  0  0  0
    0.4525   -2.0604   28.9335 H   0  0  0  0  0  0  0  0  0  0  0  0
   -0.4115   -3.5647   28.8410 H   0  0  0  0  0  0  0  0  0  0  0  0
   -2.1712   -2.1530   28.9568 H   0  0  0  0  0  0  0  0  0  0  0  0
   -3.0403    1.6854   28.2842 H   0  0  0  0  0  0  0  0  0  0  0  0
   -1.5302    3.2019   26.7089 H   0  0  0  0  0  0  0  0  0  0  0  0
   -0.0899   -5.5678   29.6636 H   0  0  0  0  0  0  0  0  0  0  0  0
   -1.4915   -8.2719   34.0568 H   0  0  0  0  0  0  0  0  0  0  0  0
  1  2  2  0
  2  3  1  0
  3  4  1  0
  4  5  1  0
  5  6  2  0
  6  7  1  0
  7  8  1  0
  2  9  1  0
  9 10  1  0
 10 11  2  0
 11 12  1  0
 12 13  1  0
 13 14  1  0
 14 15  1  0
 15 16  1  0
 16 17  2  0
 16 18  2  0
 16 19  1  0
 19 20  2  0
 20 21  1  0
 21 22  2  0
 22 23  1  0
 12 24  2  0
 24 25  1  0
 25 26  2  0
 26 27  1  0
 27 28  2  0
 28 29  1  0
  8  4  2  0
 29 10  1  0
 23 19  1  0
 29 25  1  0
  3 30  1  0
  5 31  1  0
  7 32  1  0
  8 33  1  0
  9 34  1  0
 11 35  1  0
 13 36  1  0
 13 37  1  0
 14 38  1  0
 14 39  1  0
 15 40  1  0
 20 41  1  0
 21 42  1  0
 24 43  1  0
 28 44  1  0
M  END
>  <Energy>  (1065) 
-24.624944059592984

>  <compound_id>  (1065) 
4488

>  <target_id>  (1065) 
1

>  <reference_id>  (1065) 
159

>  <inspiration_ids>  (1065) 
[159, 130]

>  <energy_score>  (1065) 
-70.67547199232399

>  <distance_score>  (1065) 
1.0396671332628467

>  <path>  (1065) 
/opt/xchem-fragalysis-2/maxwin/BulkDock/SCRATCH/505735/C4488-P159/C4488-P159.minimised.mol

>  <scratch_subdir>  (1065) 
/opt/xchem-fragalysis-2/maxwin/BulkDock/SCRATCH/505735/C4488-P159

>  <fragmenstein_runtime>  (1065) 
10.66239070892334

>  <fragmenstein_outcome>  (1065) 
too moved

>  <fragmenstein_mode>  (1065) 
expansion

>  <fragmenstein_error>  (1065) 


$$$$
C4488-P130
     RDKit          3D

 44 47  0  0  0  0  0  0  0  0999 V2000
    1.0730   -7.7833   35.2489 O   0  0  0  0  0  0  0  0  0  0  0  0
    0.5788   -6.8078   35.5825 C   0  0  0  0  0  0  0  0  0  0  0  0
    0.2769   -6.2690   37.0184 N   0  0  0  0  0  0  0  0  0  0  0  0
    0.6051   -6.7802   38.2407 C   0  0  0  0  0  0  0  0  0  0  0  0
    1.3943   -7.9072   38.5430 C   0  0  0  0  0  0  0  0  0  0  0  0
    1.5423   -8.0814   39.8578 N   0  0  0  0  0  0  0  0  0  0  0  0
    0.7645   -7.1304   40.3910 N   0  0  0  0  0  0  0  0  0  0  0  0
    0.2205   -6.2863   39.4607 C   0  0  0  0  0  0  0  0  0  0  0  0
   -0.0384   -5.6439   34.7323 N   0  0  0  0  0  0  0  0  0  0  0  0
   -0.2248   -5.5379   33.3848 C   0  0  0  0  0  0  0  0  0  0  0  0
    0.0089   -4.3774   32.7406 C   0  0  0  0  0  0  0  0  0  0  0  0
    0.0308   -4.3557   31.2703 C   0  0  0  0  0  0  0  0  0  0  0  0
    0.4803   -3.0828   30.6008 C   0  0  0  0  0  0  0  0  0  0  0  0
   -0.2421   -2.6336   29.3172 C   0  0  0  0  0  0  0  0  0  0  0  0
   -1.4926   -1.9049   29.5852 N   0  0  0  0  0  0  0  0  0  0  0  0
   -1.3765   -0.2989   30.0946 S   0  0  0  0  0  0  0  0  0  0  0  0
   -2.6935    0.0761   30.5506 O   0  0  0  0  0  0  0  0  0  0  0  0
   -0.2556   -0.1598   30.9939 O   0  0  0  0  0  0  0  0  0  0  0  0
   -1.0272    0.7784   28.7562 C   0  0  0  0  0  0  0  0  0  0  0  0
   -1.7539    1.6639   27.9849 C   0  0  0  0  0  0  0  0  0  0  0  0
   -0.8830    2.4635   27.2000 C   0  0  0  0  0  0  0  0  0  0  0  0
    0.4143    2.1890   27.2786 N   0  0  0  0  0  0  0  0  0  0  0  0
    0.6234    0.9531   28.3529 S   0  0  0  0  0  0  0  0  0  0  0  0
   -0.2150   -5.4820   30.5717 C   0  0  0  0  0  0  0  0  0  0  0  0
   -0.6246   -6.6587   31.2356 C   0  0  0  0  0  0  0  0  0  0  0  0
   -1.1020   -7.8006   30.7917 N   0  0  0  0  0  0  0  0  0  0  0  0
   -1.4377   -8.5530   31.8860 N   0  0  0  0  0  0  0  0  0  0  0  0
   -1.1296   -7.8597   32.9614 C   0  0  0  0  0  0  0  0  0  0  0  0
   -0.5976   -6.6506   32.6167 N   0  0  0  0  0  0  0  0  0  0  0  0
   -0.0938   -5.3380   36.9593 H   0  0  0  0  0  0  0  0  0  0  0  0
    1.8906   -8.5890   37.8677 H   0  0  0  0  0  0  0  0  0  0  0  0
    0.6730   -7.1003   41.4013 H   0  0  0  0  0  0  0  0  0  0  0  0
   -0.3965   -5.4519   39.7598 H   0  0  0  0  0  0  0  0  0  0  0  0
   -0.3185   -4.8910   35.3402 H   0  0  0  0  0  0  0  0  0  0  0  0
    0.3097   -3.4803   33.2749 H   0  0  0  0  0  0  0  0  0  0  0  0
    0.4952   -2.2805   31.3399 H   0  0  0  0  0  0  0  0  0  0  0  0
    1.5367   -3.2365   30.3360 H   0  0  0  0  0  0  0  0  0  0  0  0
    0.4244   -2.0039   28.7203 H   0  0  0  0  0  0  0  0  0  0  0  0
   -0.4823   -3.4848   28.6730 H   0  0  0  0  0  0  0  0  0  0  0  0
   -2.1790   -2.0114   28.8291 H   0  0  0  0  0  0  0  0  0  0  0  0
   -2.8211    1.8123   28.0414 H   0  0  0  0  0  0  0  0  0  0  0  0
   -1.1843    3.2763   26.5492 H   0  0  0  0  0  0  0  0  0  0  0  0
   -0.1482   -5.5124   29.4946 H   0  0  0  0  0  0  0  0  0  0  0  0
   -1.2937   -8.1604   33.9838 H   0  0  0  0  0  0  0  0  0  0  0  0
  1  2  2  0
  2  3  1  0
  3  4  1  0
  4  5  1  0
  5  6  2  0
  6  7  1  0
  7  8  1  0
  2  9  1  0
  9 10  1  0
 10 11  2  0
 11 12  1  0
 12 13  1  0
 13 14  1  0
 14 15  1  0
 15 16  1  0
 16 17  2  0
 16 18  2  0
 16 19  1  0
 19 20  2  0
 20 21  1  0
 21 22  2  0
 22 23  1  0
 12 24  2  0
 24 25  1  0
 25 26  2  0
 26 27  1  0
 27 28  2  0
 28 29  1  0
  8  4  2  0
 29 10  1  0
 23 19  1  0
 29 25  1  0
  3 30  1  0
  5 31  1  0
  7 32  1  0
  8 33  1  0
  9 34  1  0
 11 35  1  0
 13 36  1  0
 13 37  1  0
 14 38  1  0
 14 39  1  0
 15 40  1  0
 20 41  1  0
 21 42  1  0
 24 43  1  0
 28 44  1  0
M  END
>  <Energy>  (1066) 
-24.092224579982414

>  <compound_id>  (1066) 
4488

>  <target_id>  (1066) 
1

>  <reference_id>  (1066) 
130

>  <inspiration_ids>  (1066) 
[159, 130]

>  <energy_score>  (1066) 
-70.14275251271411

>  <distance_score>  (1066) 
1.0933580684954864

>  <path>  (1066) 
/opt/xchem-fragalysis-2/maxwin/BulkDock/SCRATCH/505735/C4488-P130/C4488-P130.minimised.mol

>  <scratch_subdir>  (1066) 
/opt/xchem-fragalysis-2/maxwin/BulkDock/SCRATCH/505735/C4488-P130

>  <fragmenstein_runtime>  (1066) 
9.38582706451416

>  <fragmenstein_outcome>  (1066) 
too moved

>  <fragmenstein_mode>  (1066) 
expansion

>  <fragmenstein_error>  (1066) 


$$$$
C4488-P159
     RDKit          3D

 44 47  0  0  0  0  0  0  0  0999 V2000
    0.8566   -7.9542   35.3593 O   0  0  0  0  0  0  0  0  0  0  0  0
    0.4131   -6.9533   35.6851 C   0  0  0  0  0  0  0  0  0  0  0  0
    0.1696   -6.3764   37.1152 N   0  0  0  0  0  0  0  0  0  0  0  0
    0.5049   -6.8784   38.3382 C   0  0  0  0  0  0  0  0  0  0  0  0
    1.2322   -8.0465   38.6409 C   0  0  0  0  0  0  0  0  0  0  0  0
    1.3973   -8.2106   39.9547 N   0  0  0  0  0  0  0  0  0  0  0  0
    0.7055   -7.1950   40.4892 N   0  0  0  0  0  0  0  0  0  0  0  0
    0.1835   -6.3399   39.5567 C   0  0  0  0  0  0  0  0  0  0  0  0
   -0.2224   -5.8039   34.8318 N   0  0  0  0  0  0  0  0  0  0  0  0
   -0.3274   -5.6638   33.4791 C   0  0  0  0  0  0  0  0  0  0  0  0
   -0.0984   -4.4831   32.8697 C   0  0  0  0  0  0  0  0  0  0  0  0
   -0.0141   -4.4316   31.4030 C   0  0  0  0  0  0  0  0  0  0  0  0
    0.3786   -3.1293   30.7570 C   0  0  0  0  0  0  0  0  0  0  0  0
   -0.3671   -2.7025   29.4757 C   0  0  0  0  0  0  0  0  0  0  0  0
   -1.6150   -1.9755   29.7601 N   0  0  0  0  0  0  0  0  0  0  0  0
   -1.4728   -0.3742   30.2744 S   0  0  0  0  0  0  0  0  0  0  0  0
   -2.7626   -0.0159   30.8159 O   0  0  0  0  0  0  0  0  0  0  0  0
   -0.3032   -0.2366   31.1103 O   0  0  0  0  0  0  0  0  0  0  0  0
   -1.1846    0.7048   28.9224 C   0  0  0  0  0  0  0  0  0  0  0  0
   -1.9376    1.5924   28.1815 C   0  0  0  0  0  0  0  0  0  0  0  0
   -1.0936    2.3938   27.3664 C   0  0  0  0  0  0  0  0  0  0  0  0
    0.2053    2.1149   27.3925 N   0  0  0  0  0  0  0  0  0  0  0  0
    0.4492    0.8688   28.4455 S   0  0  0  0  0  0  0  0  0  0  0  0
   -0.1658   -5.5554   30.6766 C   0  0  0  0  0  0  0  0  0  0  0  0
   -0.5927   -6.7486   31.2932 C   0  0  0  0  0  0  0  0  0  0  0  0
   -1.0689   -7.8676   30.8011 N   0  0  0  0  0  0  0  0  0  0  0  0
   -1.4867   -8.6313   31.8582 N   0  0  0  0  0  0  0  0  0  0  0  0
   -1.2095   -7.9785   32.9658 C   0  0  0  0  0  0  0  0  0  0  0  0
   -0.6434   -6.7690   32.6727 N   0  0  0  0  0  0  0  0  0  0  0  0
   -0.1623   -5.4316   37.0466 H   0  0  0  0  0  0  0  0  0  0  0  0
    1.6657   -8.7714   37.9671 H   0  0  0  0  0  0  0  0  0  0  0  0
    0.6476   -7.1363   41.5009 H   0  0  0  0  0  0  0  0  0  0  0  0
   -0.3768   -5.4661   39.8555 H   0  0  0  0  0  0  0  0  0  0  0  0
   -0.4418   -5.0208   35.4268 H   0  0  0  0  0  0  0  0  0  0  0  0
    0.1469   -3.5865   33.4324 H   0  0  0  0  0  0  0  0  0  0  0  0
    0.3531   -2.3457   31.5146 H   0  0  0  0  0  0  0  0  0  0  0  0
    1.4414   -3.2283   30.4921 H   0  0  0  0  0  0  0  0  0  0  0  0
    0.2861   -2.0770   28.8599 H   0  0  0  0  0  0  0  0  0  0  0  0
   -0.6145   -3.5616   28.8463 H   0  0  0  0  0  0  0  0  0  0  0  0
   -2.3090   -2.0782   29.0102 H   0  0  0  0  0  0  0  0  0  0  0  0
   -3.0015    1.7410   28.2847 H   0  0  0  0  0  0  0  0  0  0  0  0
   -1.4183    3.2125   26.7341 H   0  0  0  0  0  0  0  0  0  0  0  0
   -0.0444   -5.5572   29.6055 H   0  0  0  0  0  0  0  0  0  0  0  0
   -1.4259   -8.3174   33.9683 H   0  0  0  0  0  0  0  0  0  0  0  0
  1  2  2  0
  2  3  1  0
  3  4  1  0
  4  5  1  0
  5  6  2  0
  6  7  1  0
  7  8  1  0
  2  9  1  0
  9 10  1  0
 10 11  2  0
 11 12  1  0
 12 13  1  0
 13 14  1  0
 14 15  1  0
 15 16  1  0
 16 17  2  0
 16 18  2  0
 16 19  1  0
 19 20  2  0
 20 21  1  0
 21 22  2  0
 22 23  1  0
 12 24  2  0
 24 25  1  0
 25 26  2  0
 26 27  1  0
 27 28  2  0
 28 29  1  0
  8  4  2  0
 29 10  1  0
 23 19  1  0
 29 25  1  0
  3 30  1  0
  5 31  1  0
  7 32  1  0
  8 33  1  0
  9 34  1  0
 11 35  1  0
 13 36  1  0
 13 37  1  0
 14 38  1  0
 14 39  1  0
 15 40  1  0
 20 41  1  0
 21 42  1  0
 24 43  1  0
 28 44  1  0
M  END
>  <Energy>  (1067) 
-23.771960099414816

>  <compound_id>  (1067) 
4488

>  <target_id>  (1067) 
1

>  <reference_id>  (1067) 
159

>  <inspiration_ids>  (1067) 
[159, 131]

>  <energy_score>  (1067) 
-10.21062191849903

>  <distance_score>  (1067) 
1.1151707970792355

>  <path>  (1067) 
/opt/xchem-fragalysis-2/maxwin/BulkDock/SCRATCH/505735/C4488-P159/C4488-P159.minimised.mol

>  <scratch_subdir>  (1067) 
/opt/xchem-fragalysis-2/maxwin/BulkDock/SCRATCH/505735/C4488-P159

>  <fragmenstein_runtime>  (1067) 
4.319032669067383

>  <fragmenstein_outcome>  (1067) 
too moved

>  <fragmenstein_mode>  (1067) 
expansion

>  <fragmenstein_error>  (1067) 


$$$$
C4488-P131
     RDKit          3D

 44 47  0  0  0  0  0  0  0  0999 V2000
    1.1816   -7.9012   35.2343 O   0  0  0  0  0  0  0  0  0  0  0  0
    0.5525   -7.0134   35.5865 C   0  0  0  0  0  0  0  0  0  0  0  0
    0.1808   -6.5498   37.0334 N   0  0  0  0  0  0  0  0  0  0  0  0
    0.5837   -7.0298   38.2451 C   0  0  0  0  0  0  0  0  0  0  0  0
    1.5200   -8.0409   38.5359 C   0  0  0  0  0  0  0  0  0  0  0  0
    1.6653   -8.2381   39.8505 N   0  0  0  0  0  0  0  0  0  0  0  0
    0.7699   -7.3952   40.3897 N   0  0  0  0  0  0  0  0  0  0  0  0
    0.1234   -6.6177   39.4693 C   0  0  0  0  0  0  0  0  0  0  0  0
   -0.2582   -5.9570   34.7601 N   0  0  0  0  0  0  0  0  0  0  0  0
   -0.3480   -5.7718   33.4134 C   0  0  0  0  0  0  0  0  0  0  0  0
   -0.2371   -4.5492   32.8674 C   0  0  0  0  0  0  0  0  0  0  0  0
   -0.1797   -4.4143   31.4051 C   0  0  0  0  0  0  0  0  0  0  0  0
   -0.2182   -3.0012   30.9063 C   0  0  0  0  0  0  0  0  0  0  0  0
   -0.5400   -2.7436   29.4197 C   0  0  0  0  0  0  0  0  0  0  0  0
   -1.6393   -1.7811   29.2850 N   0  0  0  0  0  0  0  0  0  0  0  0
   -1.4181   -0.2398   29.9008 S   0  0  0  0  0  0  0  0  0  0  0  0
   -2.7042    0.1642   30.4114 O   0  0  0  0  0  0  0  0  0  0  0  0
   -0.2708   -0.2155   30.7792 O   0  0  0  0  0  0  0  0  0  0  0  0
   -1.0331    0.8709   28.6139 C   0  0  0  0  0  0  0  0  0  0  0  0
   -1.7247    1.8089   27.8783 C   0  0  0  0  0  0  0  0  0  0  0  0
   -0.8189    2.5889   27.1137 C   0  0  0  0  0  0  0  0  0  0  0  0
    0.4644    2.2457   27.1668 N   0  0  0  0  0  0  0  0  0  0  0  0
    0.6157    0.9517   28.1822 S   0  0  0  0  0  0  0  0  0  0  0  0
   -0.1316   -5.5068   30.6173 C   0  0  0  0  0  0  0  0  0  0  0  0
   -0.4341   -6.7702   31.1702 C   0  0  0  0  0  0  0  0  0  0  0  0
   -0.8119   -7.8991   30.6140 N   0  0  0  0  0  0  0  0  0  0  0  0
   -1.2304   -8.7247   31.6239 N   0  0  0  0  0  0  0  0  0  0  0  0
   -1.0509   -8.0927   32.7635 C   0  0  0  0  0  0  0  0  0  0  0  0
   -0.5360   -6.8521   32.5442 N   0  0  0  0  0  0  0  0  0  0  0  0
   -0.4562   -5.7760   36.9872 H   0  0  0  0  0  0  0  0  0  0  0  0
    2.1068   -8.6316   37.8472 H   0  0  0  0  0  0  0  0  0  0  0  0
    0.6664   -7.3877   41.3988 H   0  0  0  0  0  0  0  0  0  0  0  0
   -0.6067   -5.8815   39.7728 H   0  0  0  0  0  0  0  0  0  0  0  0
   -0.6341   -5.2570   35.3798 H   0  0  0  0  0  0  0  0  0  0  0  0
   -0.0945   -3.6606   33.4765 H   0  0  0  0  0  0  0  0  0  0  0  0
   -0.9648   -2.4871   31.5271 H   0  0  0  0  0  0  0  0  0  0  0  0
    0.7547   -2.5449   31.1331 H   0  0  0  0  0  0  0  0  0  0  0  0
    0.3425   -2.3783   28.8833 H   0  0  0  0  0  0  0  0  0  0  0  0
   -0.8683   -3.6445   28.8977 H   0  0  0  0  0  0  0  0  0  0  0  0
   -2.1173   -1.8148   28.3768 H   0  0  0  0  0  0  0  0  0  0  0  0
   -2.7872    1.9892   27.9469 H   0  0  0  0  0  0  0  0  0  0  0  0
   -1.0841    3.4362   26.4922 H   0  0  0  0  0  0  0  0  0  0  0  0
   -0.0446   -5.4514   29.5431 H   0  0  0  0  0  0  0  0  0  0  0  0
   -1.3147   -8.4449   33.7467 H   0  0  0  0  0  0  0  0  0  0  0  0
  1  2  2  0
  2  3  1  0
  3  4  1  0
  4  5  1  0
  5  6  2  0
  6  7  1  0
  7  8  1  0
  2  9  1  0
  9 10  1  0
 10 11  2  0
 11 12  1  0
 12 13  1  0
 13 14  1  0
 14 15  1  0
 15 16  1  0
 16 17  2  0
 16 18  2  0
 16 19  1  0
 19 20  2  0
 20 21  1  0
 21 22  2  0
 22 23  1  0
 12 24  2  0
 24 25  1  0
 25 26  2  0
 26 27  1  0
 27 28  2  0
 28 29  1  0
  8  4  2  0
 29 10  1  0
 23 19  1  0
 29 25  1  0
  3 30  1  0
  5 31  1  0
  7 32  1  0
  8 33  1  0
  9 34  1  0
 11 35  1  0
 13 36  1  0
 13 37  1  0
 14 38  1  0
 14 39  1  0
 15 40  1  0
 20 41  1  0
 21 42  1  0
 24 43  1  0
 28 44  1  0
M  END
>  <Energy>  (1068) 
-17.582854619883896

>  <compound_id>  (1068) 
4488

>  <target_id>  (1068) 
1

>  <reference_id>  (1068) 
131

>  <inspiration_ids>  (1068) 
[159, 131]

>  <energy_score>  (1068) 
-4.021516438968675

>  <distance_score>  (1068) 
1.0328601542460554

>  <path>  (1068) 
/opt/xchem-fragalysis-2/maxwin/BulkDock/SCRATCH/505735/C4488-P131/C4488-P131.minimised.mol

>  <scratch_subdir>  (1068) 
/opt/xchem-fragalysis-2/maxwin/BulkDock/SCRATCH/505735/C4488-P131

>  <fragmenstein_runtime>  (1068) 
4.189032316207886

>  <fragmenstein_outcome>  (1068) 
too moved

>  <fragmenstein_mode>  (1068) 
expansion

>  <fragmenstein_error>  (1068) 


$$$$
C4491-P159
     RDKit          3D

 47 50  0  0  0  0  0  0  0  0999 V2000
    1.3131   -8.1751   35.6793 O   0  0  0  0  0  0  0  0  0  0  0  0
    0.7067   -7.3558   36.1914 C   0  0  0  0  0  0  0  0  0  0  0  0
    0.4558   -7.0864   37.7047 N   0  0  0  0  0  0  0  0  0  0  0  0
    0.9647   -7.7003   38.8018 C   0  0  0  0  0  0  0  0  0  0  0  0
    2.0275   -8.6083   38.9044 C   0  0  0  0  0  0  0  0  0  0  0  0
    2.2652   -8.9549   40.1707 N   0  0  0  0  0  0  0  0  0  0  0  0
    1.2827   -8.3454   40.8540 N   0  0  0  0  0  0  0  0  0  0  0  0
    0.5198   -7.5129   40.0845 C   0  0  0  0  0  0  0  0  0  0  0  0
   -0.1161   -6.1901   35.5839 N   0  0  0  0  0  0  0  0  0  0  0  0
   -0.2541   -5.7912   34.2967 C   0  0  0  0  0  0  0  0  0  0  0  0
   -0.1501   -4.4860   34.0230 C   0  0  0  0  0  0  0  0  0  0  0  0
   -0.4339   -4.0144   32.6800 C   0  0  0  0  0  0  0  0  0  0  0  0
   -1.0596   -2.6501   32.6776 C   0  0  0  0  0  0  0  0  0  0  0  0
   -0.2905   -1.6589   31.9424 N   0  0  0  0  0  0  0  0  0  0  0  0
   -0.9813   -1.3189   30.4507 S   0  0  0  0  0  0  0  0  0  0  0  0
   -2.3689   -1.0275   30.7027 O   0  0  0  0  0  0  0  0  0  0  0  0
   -0.5524   -2.3335   29.5268 O   0  0  0  0  0  0  0  0  0  0  0  0
   -0.1642    0.1294   30.1864 N   0  0  0  0  0  0  0  0  0  0  0  0
    1.2334   -0.0338   29.7099 C   0  0  0  0  0  0  0  0  0  0  0  0
    1.1124   -0.1302   28.1968 C   0  0  0  0  0  0  0  0  0  0  0  0
   -0.2441    0.4609   27.8384 C   0  0  0  0  0  0  0  0  0  0  0  0
   -0.7988    0.9810   29.1439 C   0  0  0  0  0  0  0  0  0  0  0  0
   -0.4805   -4.8754   31.6351 C   0  0  0  0  0  0  0  0  0  0  0  0
   -0.5912   -6.2722   31.9117 C   0  0  0  0  0  0  0  0  0  0  0  0
   -0.9743   -7.2927   31.1687 N   0  0  0  0  0  0  0  0  0  0  0  0
   -1.2811   -8.3348   32.0129 N   0  0  0  0  0  0  0  0  0  0  0  0
   -1.0407   -7.9343   33.2419 C   0  0  0  0  0  0  0  0  0  0  0  0
   -0.5484   -6.6613   33.2435 N   0  0  0  0  0  0  0  0  0  0  0  0
   -0.1929   -6.3286   37.8099 H   0  0  0  0  0  0  0  0  0  0  0  0
    2.6589   -9.0092   38.1245 H   0  0  0  0  0  0  0  0  0  0  0  0
    1.2131   -8.5251   41.8504 H   0  0  0  0  0  0  0  0  0  0  0  0
   -0.2713   -6.9192   40.5175 H   0  0  0  0  0  0  0  0  0  0  0  0
   -0.4618   -5.5992   36.3219 H   0  0  0  0  0  0  0  0  0  0  0  0
    0.0878   -3.7562   34.7917 H   0  0  0  0  0  0  0  0  0  0  0  0
   -1.1810   -2.2630   33.6989 H   0  0  0  0  0  0  0  0  0  0  0  0
   -2.0932   -2.7484   32.3239 H   0  0  0  0  0  0  0  0  0  0  0  0
   -0.2780   -0.7694   32.4400 H   0  0  0  0  0  0  0  0  0  0  0  0
    1.7428   -0.8966   30.1486 H   0  0  0  0  0  0  0  0  0  0  0  0
    1.8009    0.8589   29.9987 H   0  0  0  0  0  0  0  0  0  0  0  0
    1.9338    0.3994   27.7033 H   0  0  0  0  0  0  0  0  0  0  0  0
    1.1701   -1.1763   27.8869 H   0  0  0  0  0  0  0  0  0  0  0  0
   -0.1713    1.2584   27.0941 H   0  0  0  0  0  0  0  0  0  0  0  0
   -0.9006   -0.3166   27.4333 H   0  0  0  0  0  0  0  0  0  0  0  0
   -1.8912    0.9661   29.1719 H   0  0  0  0  0  0  0  0  0  0  0  0
   -0.4816    2.0175   29.3099 H   0  0  0  0  0  0  0  0  0  0  0  0
   -0.7330   -4.5442   30.6335 H   0  0  0  0  0  0  0  0  0  0  0  0
   -1.2247   -8.4929   34.1463 H   0  0  0  0  0  0  0  0  0  0  0  0
  1  2  2  0
  2  3  1  0
  3  4  1  0
  4  5  1  0
  5  6  2  0
  6  7  1  0
  7  8  1  0
  2  9  1  0
  9 10  1  0
 10 11  2  0
 11 12  1  0
 12 13  1  0
 13 14  1  0
 14 15  1  0
 15 16  2  0
 15 17  2  0
 15 18  1  0
 18 19  1  0
 19 20  1  0
 20 21  1  0
 21 22  1  0
 12 23  2  0
 23 24  1  0
 24 25  2  0
 25 26  1  0
 26 27  2  0
 27 28  1  0
  8  4  2  0
 28 10  1  0
 22 18  1  0
 28 24  1  0
  3 29  1  0
  5 30  1  0
  7 31  1  0
  8 32  1  0
  9 33  1  0
 11 34  1  0
 13 35  1  0
 13 36  1  0
 14 37  1  0
 19 38  1  0
 19 39  1  0
 20 40  1  0
 20 41  1  0
 21 42  1  0
 21 43  1  0
 22 44  1  0
 22 45  1  0
 23 46  1  0
 27 47  1  0
M  END
>  <Energy>  (1069) 
-142.77030058111589

>  <compound_id>  (1069) 
4491

>  <target_id>  (1069) 
1

>  <reference_id>  (1069) 
159

>  <inspiration_ids>  (1069) 
[159, 134]

>  <energy_score>  (1069) 
-41.96154822509335

>  <distance_score>  (1069) 
1.2359360067507532

>  <path>  (1069) 
/opt/xchem-fragalysis-2/maxwin/BulkDock/SCRATCH/505735/C4491-P159/C4491-P159.minimised.mol

>  <scratch_subdir>  (1069) 
/opt/xchem-fragalysis-2/maxwin/BulkDock/SCRATCH/505735/C4491-P159

>  <fragmenstein_runtime>  (1069) 
8.384835720062256

>  <fragmenstein_outcome>  (1069) 
too moved

>  <fragmenstein_mode>  (1069) 
expansion

>  <fragmenstein_error>  (1069) 


$$$$
C4491-P134
     RDKit          3D

 47 50  0  0  0  0  0  0  0  0999 V2000
    1.7206   -7.6690   35.5450 O   0  0  0  0  0  0  0  0  0  0  0  0
    0.8407   -7.0564   35.9437 C   0  0  0  0  0  0  0  0  0  0  0  0
    0.3635   -6.8118   37.4131 N   0  0  0  0  0  0  0  0  0  0  0  0
    0.8164   -7.3355   38.5849 C   0  0  0  0  0  0  0  0  0  0  0  0
    1.9195   -8.1736   38.8212 C   0  0  0  0  0  0  0  0  0  0  0  0
    2.0526   -8.4841   40.1148 N   0  0  0  0  0  0  0  0  0  0  0  0
    1.0038   -7.8715   40.6891 N   0  0  0  0  0  0  0  0  0  0  0  0
    0.2605   -7.1239   39.8202 C   0  0  0  0  0  0  0  0  0  0  0  0
   -0.1735   -6.1365   35.1887 N   0  0  0  0  0  0  0  0  0  0  0  0
   -0.2151   -5.7596   33.8872 C   0  0  0  0  0  0  0  0  0  0  0  0
    0.2656   -4.5539   33.5476 C   0  0  0  0  0  0  0  0  0  0  0  0
    0.3770   -4.1920   32.1396 C   0  0  0  0  0  0  0  0  0  0  0  0
    0.8208   -2.7827   31.8683 C   0  0  0  0  0  0  0  0  0  0  0  0
   -0.2486   -1.8208   32.1858 N   0  0  0  0  0  0  0  0  0  0  0  0
   -1.4259   -1.6287   31.0167 S   0  0  0  0  0  0  0  0  0  0  0  0
   -2.2722   -0.5436   31.4325 O   0  0  0  0  0  0  0  0  0  0  0  0
   -1.9801   -2.9355   30.7652 O   0  0  0  0  0  0  0  0  0  0  0  0
   -0.4832   -1.1356   29.7360 N   0  0  0  0  0  0  0  0  0  0  0  0
   -1.1258   -1.2404   28.3978 C   0  0  0  0  0  0  0  0  0  0  0  0
   -1.1523    0.1786   27.8764 C   0  0  0  0  0  0  0  0  0  0  0  0
    0.1493    0.7330   28.4031 C   0  0  0  0  0  0  0  0  0  0  0  0
    0.1603    0.2026   29.8279 C   0  0  0  0  0  0  0  0  0  0  0  0
    0.0801   -5.0883   31.1685 C   0  0  0  0  0  0  0  0  0  0  0  0
   -0.4660   -6.3525   31.5208 C   0  0  0  0  0  0  0  0  0  0  0  0
   -0.9426   -7.3540   30.8100 N   0  0  0  0  0  0  0  0  0  0  0  0
   -1.4594   -8.2778   31.6879 N   0  0  0  0  0  0  0  0  0  0  0  0
   -1.2579   -7.8263   32.9064 C   0  0  0  0  0  0  0  0  0  0  0  0
   -0.6092   -6.6289   32.8699 N   0  0  0  0  0  0  0  0  0  0  0  0
   -0.3954   -6.1577   37.4171 H   0  0  0  0  0  0  0  0  0  0  0  0
    2.6335   -8.5640   38.1094 H   0  0  0  0  0  0  0  0  0  0  0  0
    0.8706   -7.9879   41.6879 H   0  0  0  0  0  0  0  0  0  0  0  0
   -0.5896   -6.5518   40.1601 H   0  0  0  0  0  0  0  0  0  0  0  0
   -0.7760   -5.6797   35.8527 H   0  0  0  0  0  0  0  0  0  0  0  0
    0.6359   -3.8607   34.2977 H   0  0  0  0  0  0  0  0  0  0  0  0
    1.1776   -2.6665   30.8398 H   0  0  0  0  0  0  0  0  0  0  0  0
    1.6867   -2.5393   32.4971 H   0  0  0  0  0  0  0  0  0  0  0  0
   -0.6980   -1.9858   33.0840 H   0  0  0  0  0  0  0  0  0  0  0  0
   -2.1201   -1.6824   28.4127 H   0  0  0  0  0  0  0  0  0  0  0  0
   -0.4790   -1.8794   27.7944 H   0  0  0  0  0  0  0  0  0  0  0  0
   -1.2443    0.2391   26.7926 H   0  0  0  0  0  0  0  0  0  0  0  0
   -1.9816    0.7410   28.3150 H   0  0  0  0  0  0  0  0  0  0  0  0
    0.9969    0.3307   27.8355 H   0  0  0  0  0  0  0  0  0  0  0  0
    0.1954    1.8248   28.3646 H   0  0  0  0  0  0  0  0  0  0  0  0
   -0.4005    0.8768   30.4816 H   0  0  0  0  0  0  0  0  0  0  0  0
    1.1807    0.1100   30.2105 H   0  0  0  0  0  0  0  0  0  0  0  0
    0.1367   -4.8302   30.1152 H   0  0  0  0  0  0  0  0  0  0  0  0
   -1.5696   -8.2889   33.8277 H   0  0  0  0  0  0  0  0  0  0  0  0
  1  2  2  0
  2  3  1  0
  3  4  1  0
  4  5  1  0
  5  6  2  0
  6  7  1  0
  7  8  1  0
  2  9  1  0
  9 10  1  0
 10 11  2  0
 11 12  1  0
 12 13  1  0
 13 14  1  0
 14 15  1  0
 15 16  2  0
 15 17  2  0
 15 18  1  0
 18 19  1  0
 19 20  1  0
 20 21  1  0
 21 22  1  0
 12 23  2  0
 23 24  1  0
 24 25  2  0
 25 26  1  0
 26 27  2  0
 27 28  1  0
  8  4  2  0
 28 10  1  0
 22 18  1  0
 28 24  1  0
  3 29  1  0
  5 30  1  0
  7 31  1  0
  8 32  1  0
  9 33  1  0
 11 34  1  0
 13 35  1  0
 13 36  1  0
 14 37  1  0
 19 38  1  0
 19 39  1  0
 20 40  1  0
 20 41  1  0
 21 42  1  0
 21 43  1  0
 22 44  1  0
 22 45  1  0
 23 46  1  0
 27 47  1  0
M  END
>  <Energy>  (1070) 
-154.42342560737455

>  <compound_id>  (1070) 
4491

>  <target_id>  (1070) 
1

>  <reference_id>  (1070) 
134

>  <inspiration_ids>  (1070) 
[159, 134]

>  <energy_score>  (1070) 
-53.614673251353736

>  <distance_score>  (1070) 
1.2030613669915442

>  <path>  (1070) 
/opt/xchem-fragalysis-2/maxwin/BulkDock/SCRATCH/505735/C4491-P134/C4491-P134.minimised.mol

>  <scratch_subdir>  (1070) 
/opt/xchem-fragalysis-2/maxwin/BulkDock/SCRATCH/505735/C4491-P134

>  <fragmenstein_runtime>  (1070) 
7.351470947265625

>  <fragmenstein_outcome>  (1070) 
too moved

>  <fragmenstein_mode>  (1070) 
expansion

>  <fragmenstein_error>  (1070) 


$$$$
C4492-P159
     RDKit          3D

 45 48  0  0  0  0  0  0  0  0999 V2000
    2.5064    0.4830   27.8080 C   0  0  0  0  0  0  0  0  0  0  0  0
    1.2124    0.1818   28.3711 N   0  0  0  0  0  0  0  0  0  0  0  0
   -0.0079    0.5387   27.8829 C   0  0  0  0  0  0  0  0  0  0  0  0
   -0.9371    0.1546   28.8177 C   0  0  0  0  0  0  0  0  0  0  0  0
   -0.1620   -0.3451   29.8767 C   0  0  0  0  0  0  0  0  0  0  0  0
   -0.7474   -0.6723   31.4710 S   0  0  0  0  0  0  0  0  0  0  0  0
   -2.1059   -0.1756   31.5419 O   0  0  0  0  0  0  0  0  0  0  0  0
    0.2808   -0.1556   32.3475 O   0  0  0  0  0  0  0  0  0  0  0  0
   -0.8176   -2.3239   31.7403 N   0  0  0  0  0  0  0  0  0  0  0  0
    0.4567   -3.0251   31.5419 C   0  0  0  0  0  0  0  0  0  0  0  0
    0.1908   -4.4353   31.9696 C   0  0  0  0  0  0  0  0  0  0  0  0
    0.1545   -4.6537   33.4125 C   0  0  0  0  0  0  0  0  0  0  0  0
   -0.2276   -5.8472   33.8886 C   0  0  0  0  0  0  0  0  0  0  0  0
   -0.1536   -6.0904   35.2216 N   0  0  0  0  0  0  0  0  0  0  0  0
    0.5466   -7.2429   35.9975 C   0  0  0  0  0  0  0  0  0  0  0  0
    1.0836   -8.1714   35.6103 O   0  0  0  0  0  0  0  0  0  0  0  0
    0.2753   -6.7731   37.4581 N   0  0  0  0  0  0  0  0  0  0  0  0
    0.6854   -7.3002   38.6426 C   0  0  0  0  0  0  0  0  0  0  0  0
    1.6107   -8.3313   38.8791 C   0  0  0  0  0  0  0  0  0  0  0  0
    1.7965   -8.5470   40.1826 N   0  0  0  0  0  0  0  0  0  0  0  0
    0.9169   -7.7201   40.7678 N   0  0  0  0  0  0  0  0  0  0  0  0
    0.2626   -6.9061   39.8850 C   0  0  0  0  0  0  0  0  0  0  0  0
   -0.6309   -6.8268   32.9736 N   0  0  0  0  0  0  0  0  0  0  0  0
   -1.2770   -8.0172   33.1497 C   0  0  0  0  0  0  0  0  0  0  0  0
   -1.5605   -8.5596   31.9852 N   0  0  0  0  0  0  0  0  0  0  0  0
   -1.1022   -7.7149   31.0040 N   0  0  0  0  0  0  0  0  0  0  0  0
   -0.5688   -6.6687   31.5974 C   0  0  0  0  0  0  0  0  0  0  0  0
   -0.0852   -5.4311   31.1003 C   0  0  0  0  0  0  0  0  0  0  0  0
    1.1446   -0.4429   29.5559 N   0  0  0  0  0  0  0  0  0  0  0  0
    3.1629    0.8348   28.6086 H   0  0  0  0  0  0  0  0  0  0  0  0
    2.9091   -0.4284   27.3628 H   0  0  0  0  0  0  0  0  0  0  0  0
    2.4030    1.2688   27.0573 H   0  0  0  0  0  0  0  0  0  0  0  0
   -0.1281    1.0728   26.9548 H   0  0  0  0  0  0  0  0  0  0  0  0
   -2.0029    0.3341   28.7869 H   0  0  0  0  0  0  0  0  0  0  0  0
   -1.2469   -2.4744   32.6519 H   0  0  0  0  0  0  0  0  0  0  0  0
    0.7444   -2.9996   30.4864 H   0  0  0  0  0  0  0  0  0  0  0  0
    1.2653   -2.5890   32.1376 H   0  0  0  0  0  0  0  0  0  0  0  0
    0.5017   -3.8594   34.0684 H   0  0  0  0  0  0  0  0  0  0  0  0
   -0.4576   -5.3812   35.8694 H   0  0  0  0  0  0  0  0  0  0  0  0
   -0.2970   -5.9491   37.4473 H   0  0  0  0  0  0  0  0  0  0  0  0
    2.1761   -8.9153   38.1673 H   0  0  0  0  0  0  0  0  0  0  0  0
    0.8351   -7.7490   41.7790 H   0  0  0  0  0  0  0  0  0  0  0  0
   -0.4448   -6.1650   40.2271 H   0  0  0  0  0  0  0  0  0  0  0  0
   -1.5266   -8.4204   34.1198 H   0  0  0  0  0  0  0  0  0  0  0  0
   -0.0836   -5.2683   30.0267 H   0  0  0  0  0  0  0  0  0  0  0  0
  1  2  1  0
  2  3  1  0
  3  4  2  0
  4  5  1  0
  5  6  1  0
  6  7  2  0
  6  8  2  0
  6  9  1  0
  9 10  1  0
 10 11  1  0
 11 12  1  0
 12 13  2  0
 13 14  1  0
 14 15  1  0
 15 16  2  0
 15 17  1  0
 17 18  1  0
 18 19  1  0
 19 20  2  0
 20 21  1  0
 21 22  1  0
 13 23  1  0
 23 24  1  0
 24 25  2  0
 25 26  1  0
 26 27  2  0
 27 28  1  0
  5 29  2  0
 29  2  1  0
 28 11  2  0
 22 18  2  0
 27 23  1  0
  1 30  1  0
  1 31  1  0
  1 32  1  0
  3 33  1  0
  4 34  1  0
  9 35  1  0
 10 36  1  0
 10 37  1  0
 12 38  1  0
 14 39  1  0
 17 40  1  0
 19 41  1  0
 21 42  1  0
 22 43  1  0
 24 44  1  0
 28 45  1  0
M  END
>  <Energy>  (1071) 
41.523604926108334

>  <compound_id>  (1071) 
4492

>  <target_id>  (1071) 
1

>  <reference_id>  (1071) 
159

>  <inspiration_ids>  (1071) 
[159, 135]

>  <energy_score>  (1071) 
-10.923557375007846

>  <distance_score>  (1071) 
1.1064035786508142

>  <path>  (1071) 
/opt/xchem-fragalysis-2/maxwin/BulkDock/SCRATCH/505735/C4492-P159/C4492-P159.minimised.mol

>  <scratch_subdir>  (1071) 
/opt/xchem-fragalysis-2/maxwin/BulkDock/SCRATCH/505735/C4492-P159

>  <fragmenstein_runtime>  (1071) 
5.563471078872681

>  <fragmenstein_outcome>  (1071) 
too moved

>  <fragmenstein_mode>  (1071) 
expansion

>  <fragmenstein_error>  (1071) 


$$$$
C4492-P135
     RDKit          3D

 45 48  0  0  0  0  0  0  0  0999 V2000
    2.6255    0.1776   27.6179 C   0  0  0  0  0  0  0  0  0  0  0  0
    1.3245    0.0776   28.2356 N   0  0  0  0  0  0  0  0  0  0  0  0
    0.1599    0.6373   27.8063 C   0  0  0  0  0  0  0  0  0  0  0  0
   -0.7890    0.3555   28.7569 C   0  0  0  0  0  0  0  0  0  0  0  0
   -0.0728   -0.3036   29.7683 C   0  0  0  0  0  0  0  0  0  0  0  0
   -0.6690   -0.6153   31.3632 S   0  0  0  0  0  0  0  0  0  0  0  0
   -2.0275   -0.1186   31.4255 O   0  0  0  0  0  0  0  0  0  0  0  0
    0.3571   -0.0916   32.2377 O   0  0  0  0  0  0  0  0  0  0  0  0
   -0.7419   -2.2645   31.6534 N   0  0  0  0  0  0  0  0  0  0  0  0
    0.5207   -2.9737   31.4094 C   0  0  0  0  0  0  0  0  0  0  0  0
    0.2616   -4.3819   31.8380 C   0  0  0  0  0  0  0  0  0  0  0  0
    0.2724   -4.6015   33.2791 C   0  0  0  0  0  0  0  0  0  0  0  0
   -0.1215   -5.7861   33.7636 C   0  0  0  0  0  0  0  0  0  0  0  0
   -0.0045   -6.0199   35.0940 N   0  0  0  0  0  0  0  0  0  0  0  0
    0.7797   -7.1286   35.8581 C   0  0  0  0  0  0  0  0  0  0  0  0
    1.4849   -7.9365   35.4657 O   0  0  0  0  0  0  0  0  0  0  0  0
    0.3611   -6.7795   37.3206 N   0  0  0  0  0  0  0  0  0  0  0  0
    0.7962   -7.2872   38.5066 C   0  0  0  0  0  0  0  0  0  0  0  0
    1.8185   -8.2195   38.7529 C   0  0  0  0  0  0  0  0  0  0  0  0
    1.9947   -8.4376   40.0578 N   0  0  0  0  0  0  0  0  0  0  0  0
    1.0122   -7.7265   40.6307 N   0  0  0  0  0  0  0  0  0  0  0  0
    0.3080   -6.9579   39.7451 C   0  0  0  0  0  0  0  0  0  0  0  0
   -0.5506   -6.7600   32.8586 N   0  0  0  0  0  0  0  0  0  0  0  0
   -1.1915   -7.9457   33.0523 C   0  0  0  0  0  0  0  0  0  0  0  0
   -1.4790   -8.5091   31.8995 N   0  0  0  0  0  0  0  0  0  0  0  0
   -1.0418   -7.6704   30.9035 N   0  0  0  0  0  0  0  0  0  0  0  0
   -0.5150   -6.6112   31.4816 C   0  0  0  0  0  0  0  0  0  0  0  0
   -0.0491   -5.3721   30.9733 C   0  0  0  0  0  0  0  0  0  0  0  0
    1.2038   -0.5581   29.4115 N   0  0  0  0  0  0  0  0  0  0  0  0
    3.3437    0.5057   28.3742 H   0  0  0  0  0  0  0  0  0  0  0  0
    2.9015   -0.8069   27.2357 H   0  0  0  0  0  0  0  0  0  0  0  0
    2.5926    0.9097   26.8089 H   0  0  0  0  0  0  0  0  0  0  0  0
    0.0960    1.2228   26.9034 H   0  0  0  0  0  0  0  0  0  0  0  0
   -1.8147    0.6951   28.7696 H   0  0  0  0  0  0  0  0  0  0  0  0
   -1.1166   -2.3952   32.5912 H   0  0  0  0  0  0  0  0  0  0  0  0
    0.7700   -2.9559   30.3446 H   0  0  0  0  0  0  0  0  0  0  0  0
    1.3528   -2.5426   31.9755 H   0  0  0  0  0  0  0  0  0  0  0  0
    0.6536   -3.8173   33.9285 H   0  0  0  0  0  0  0  0  0  0  0  0
   -0.6016   -5.5230   35.7360 H   0  0  0  0  0  0  0  0  0  0  0  0
   -0.2140   -5.9571   37.3204 H   0  0  0  0  0  0  0  0  0  0  0  0
    2.4610   -8.7265   38.0471 H   0  0  0  0  0  0  0  0  0  0  0  0
    0.9024   -7.7913   41.6375 H   0  0  0  0  0  0  0  0  0  0  0  0
   -0.4752   -6.2950   40.0815 H   0  0  0  0  0  0  0  0  0  0  0  0
   -1.4348   -8.3185   34.0330 H   0  0  0  0  0  0  0  0  0  0  0  0
   -0.0832   -5.2048   29.9012 H   0  0  0  0  0  0  0  0  0  0  0  0
  1  2  1  0
  2  3  1  0
  3  4  2  0
  4  5  1  0
  5  6  1  0
  6  7  2  0
  6  8  2  0
  6  9  1  0
  9 10  1  0
 10 11  1  0
 11 12  1  0
 12 13  2  0
 13 14  1  0
 14 15  1  0
 15 16  2  0
 15 17  1  0
 17 18  1  0
 18 19  1  0
 19 20  2  0
 20 21  1  0
 21 22  1  0
 13 23  1  0
 23 24  1  0
 24 25  2  0
 25 26  1  0
 26 27  2  0
 27 28  1  0
  5 29  2  0
 29  2  1  0
 28 11  2  0
 22 18  2  0
 27 23  1  0
  1 30  1  0
  1 31  1  0
  1 32  1  0
  3 33  1  0
  4 34  1  0
  9 35  1  0
 10 36  1  0
 10 37  1  0
 12 38  1  0
 14 39  1  0
 17 40  1  0
 19 41  1  0
 21 42  1  0
 22 43  1  0
 24 44  1  0
 28 45  1  0
M  END
>  <Energy>  (1072) 
46.950644982140666

>  <compound_id>  (1072) 
4492

>  <target_id>  (1072) 
1

>  <reference_id>  (1072) 
135

>  <inspiration_ids>  (1072) 
[159, 135]

>  <energy_score>  (1072) 
-5.496517318973503

>  <distance_score>  (1072) 
1.1448006323573154

>  <path>  (1072) 
/opt/xchem-fragalysis-2/maxwin/BulkDock/SCRATCH/505735/C4492-P135/C4492-P135.minimised.mol

>  <scratch_subdir>  (1072) 
/opt/xchem-fragalysis-2/maxwin/BulkDock/SCRATCH/505735/C4492-P135

>  <fragmenstein_runtime>  (1072) 
6.181509733200073

>  <fragmenstein_outcome>  (1072) 
too moved

>  <fragmenstein_mode>  (1072) 
expansion

>  <fragmenstein_error>  (1072) 


$$$$
C4493-P159
     RDKit          3D

 48 51  0  0  0  0  0  0  0  0999 V2000
    2.8602   -3.5130   30.3939 C   0  0  0  0  0  0  0  0  0  0  0  0
    3.0963   -3.0127   31.7280 N   0  0  0  0  0  0  0  0  0  0  0  0
    3.4769   -3.7367   32.8218 C   0  0  0  0  0  0  0  0  0  0  0  0
    3.6669   -2.8339   33.8386 C   0  0  0  0  0  0  0  0  0  0  0  0
    3.3310   -1.5864   33.2704 C   0  0  0  0  0  0  0  0  0  0  0  0
    3.0888   -0.1279   34.2058 S   0  0  0  0  0  0  0  0  0  0  0  0
    3.7878    0.9173   33.4966 O   0  0  0  0  0  0  0  0  0  0  0  0
    3.3951   -0.4977   35.5713 O   0  0  0  0  0  0  0  0  0  0  0  0
    1.4163    0.1620   34.0946 N   0  0  0  0  0  0  0  0  0  0  0  0
    0.5529   -0.9969   34.4603 C   0  0  0  0  0  0  0  0  0  0  0  0
   -0.0799   -1.7343   33.2148 C   0  0  0  0  0  0  0  0  0  0  0  0
   -0.1898   -3.2792   33.2077 C   0  0  0  0  0  0  0  0  0  0  0  0
   -0.2667   -3.9374   34.5074 C   0  0  0  0  0  0  0  0  0  0  0  0
   -0.3534   -5.2749   34.6103 C   0  0  0  0  0  0  0  0  0  0  0  0
   -0.2811   -5.8311   35.8485 N   0  0  0  0  0  0  0  0  0  0  0  0
    0.4458   -7.1194   36.3339 C   0  0  0  0  0  0  0  0  0  0  0  0
    1.0115   -7.9152   35.7411 O   0  0  0  0  0  0  0  0  0  0  0  0
    0.2631   -6.9501   37.8720 N   0  0  0  0  0  0  0  0  0  0  0  0
    0.8009   -7.6493   38.9022 C   0  0  0  0  0  0  0  0  0  0  0  0
    1.8622   -8.5658   38.8915 C   0  0  0  0  0  0  0  0  0  0  0  0
    2.1610   -8.9961   40.1182 N   0  0  0  0  0  0  0  0  0  0  0  0
    1.2149   -8.4327   40.8876 N   0  0  0  0  0  0  0  0  0  0  0  0
    0.4198   -7.5482   40.2138 C   0  0  0  0  0  0  0  0  0  0  0  0
   -0.4885   -6.0267   33.4401 N   0  0  0  0  0  0  0  0  0  0  0  0
   -0.8230   -7.3394   33.2303 C   0  0  0  0  0  0  0  0  0  0  0  0
   -0.9416   -7.5821   31.9439 N   0  0  0  0  0  0  0  0  0  0  0  0
   -0.6812   -6.4044   31.2760 N   0  0  0  0  0  0  0  0  0  0  0  0
   -0.4522   -5.4635   32.1729 C   0  0  0  0  0  0  0  0  0  0  0  0
   -0.2627   -4.0438   32.0829 C   0  0  0  0  0  0  0  0  0  0  0  0
    2.9496   -1.7020   31.9828 N   0  0  0  0  0  0  0  0  0  0  0  0
    2.0487   -2.9403   29.9374 H   0  0  0  0  0  0  0  0  0  0  0  0
    2.5797   -4.5671   30.4500 H   0  0  0  0  0  0  0  0  0  0  0  0
    3.7819   -3.3929   29.8198 H   0  0  0  0  0  0  0  0  0  0  0  0
    3.5965   -4.8077   32.7898 H   0  0  0  0  0  0  0  0  0  0  0  0
    3.9554   -3.0428   34.8601 H   0  0  0  0  0  0  0  0  0  0  0  0
    1.2066    0.5935   33.1919 H   0  0  0  0  0  0  0  0  0  0  0  0
   -0.2640   -0.6021   35.0768 H   0  0  0  0  0  0  0  0  0  0  0  0
    1.1093   -1.6829   35.1041 H   0  0  0  0  0  0  0  0  0  0  0  0
   -1.1077   -1.3542   33.1242 H   0  0  0  0  0  0  0  0  0  0  0  0
    0.4194   -1.4134   32.2948 H   0  0  0  0  0  0  0  0  0  0  0  0
   -0.2097   -3.3336   35.4060 H   0  0  0  0  0  0  0  0  0  0  0  0
   -0.6084   -5.3070   36.6432 H   0  0  0  0  0  0  0  0  0  0  0  0
   -0.3626   -6.1871   38.0562 H   0  0  0  0  0  0  0  0  0  0  0  0
    2.4550   -8.9103   38.0567 H   0  0  0  0  0  0  0  0  0  0  0  0
    1.1931   -8.6781   41.8721 H   0  0  0  0  0  0  0  0  0  0  0  0
   -0.3425   -6.9793   40.7248 H   0  0  0  0  0  0  0  0  0  0  0  0
   -0.9941   -8.0474   34.0280 H   0  0  0  0  0  0  0  0  0  0  0  0
   -0.2447   -3.5946   31.0944 H   0  0  0  0  0  0  0  0  0  0  0  0
  1  2  1  0
  2  3  1  0
  3  4  2  0
  4  5  1  0
  5  6  1  0
  6  7  2  0
  6  8  2  0
  6  9  1  0
  9 10  1  0
 10 11  1  0
 11 12  1  0
 12 13  1  0
 13 14  2  0
 14 15  1  0
 15 16  1  0
 16 17  2  0
 16 18  1  0
 18 19  1  0
 19 20  1  0
 20 21  2  0
 21 22  1  0
 22 23  1  0
 14 24  1  0
 24 25  1  0
 25 26  2  0
 26 27  1  0
 27 28  2  0
 28 29  1  0
  5 30  2  0
 30  2  1  0
 29 12  2  0
 23 19  2  0
 28 24  1  0
  1 31  1  0
  1 32  1  0
  1 33  1  0
  3 34  1  0
  4 35  1  0
  9 36  1  0
 10 37  1  0
 10 38  1  0
 11 39  1  0
 11 40  1  0
 13 41  1  0
 15 42  1  0
 18 43  1  0
 20 44  1  0
 22 45  1  0
 23 46  1  0
 25 47  1  0
 29 48  1  0
M  END
>  <Energy>  (1073) 
71.539609355043098

>  <compound_id>  (1073) 
4493

>  <target_id>  (1073) 
1

>  <reference_id>  (1073) 
159

>  <inspiration_ids>  (1073) 
[159, 136]

>  <energy_score>  (1073) 
-46.78903012853803

>  <distance_score>  (1073) 
1.5180383661607546

>  <path>  (1073) 
/opt/xchem-fragalysis-2/maxwin/BulkDock/SCRATCH/505735/C4493-P159/C4493-P159.minimised.mol

>  <scratch_subdir>  (1073) 
/opt/xchem-fragalysis-2/maxwin/BulkDock/SCRATCH/505735/C4493-P159

>  <fragmenstein_runtime>  (1073) 
4.541885614395142

>  <fragmenstein_outcome>  (1073) 
too moved

>  <fragmenstein_mode>  (1073) 
expansion

>  <fragmenstein_error>  (1073) 


$$$$
C4493-P136
     RDKit          3D

 48 51  0  0  0  0  0  0  0  0999 V2000
    2.8725   -3.7159   30.3824 C   0  0  0  0  0  0  0  0  0  0  0  0
    3.0676   -3.1909   31.7135 N   0  0  0  0  0  0  0  0  0  0  0  0
    3.3557   -3.9057   32.8415 C   0  0  0  0  0  0  0  0  0  0  0  0
    3.5255   -2.9833   33.8460 C   0  0  0  0  0  0  0  0  0  0  0  0
    3.2866   -1.7323   33.2302 C   0  0  0  0  0  0  0  0  0  0  0  0
    3.0891   -0.2368   34.1168 S   0  0  0  0  0  0  0  0  0  0  0  0
    3.8611    0.7711   33.4293 O   0  0  0  0  0  0  0  0  0  0  0  0
    3.3376   -0.5778   35.5032 O   0  0  0  0  0  0  0  0  0  0  0  0
    1.4379    0.1585   34.0040 N   0  0  0  0  0  0  0  0  0  0  0  0
    0.5104   -0.9480   34.3689 C   0  0  0  0  0  0  0  0  0  0  0  0
   -0.1246   -1.6539   33.1050 C   0  0  0  0  0  0  0  0  0  0  0  0
   -0.2928   -3.1934   33.1074 C   0  0  0  0  0  0  0  0  0  0  0  0
   -0.4436   -3.8246   34.4120 C   0  0  0  0  0  0  0  0  0  0  0  0
   -0.4733   -5.1613   34.5407 C   0  0  0  0  0  0  0  0  0  0  0  0
   -0.4063   -5.6743   35.7959 N   0  0  0  0  0  0  0  0  0  0  0  0
    0.4138   -6.8766   36.3517 C   0  0  0  0  0  0  0  0  0  0  0  0
    1.0769   -7.6323   35.8079 O   0  0  0  0  0  0  0  0  0  0  0  0
    0.1345   -6.6934   37.8777 N   0  0  0  0  0  0  0  0  0  0  0  0
    0.6750   -7.3242   38.9521 C   0  0  0  0  0  0  0  0  0  0  0  0
    0.4146   -7.1294   40.3150 C   0  0  0  0  0  0  0  0  0  0  0  0
    1.1230   -7.9526   41.0929 N   0  0  0  0  0  0  0  0  0  0  0  0
    1.8202   -8.6828   40.2122 N   0  0  0  0  0  0  0  0  0  0  0  0
    1.6265   -8.3001   38.9227 C   0  0  0  0  0  0  0  0  0  0  0  0
   -0.5193   -5.9447   33.3845 N   0  0  0  0  0  0  0  0  0  0  0  0
   -0.7437   -7.2820   33.1899 C   0  0  0  0  0  0  0  0  0  0  0  0
   -0.8188   -7.5489   31.9042 N   0  0  0  0  0  0  0  0  0  0  0  0
   -0.6249   -6.3670   31.2211 N   0  0  0  0  0  0  0  0  0  0  0  0
   -0.4780   -5.4012   32.1077 C   0  0  0  0  0  0  0  0  0  0  0  0
   -0.3185   -3.9791   31.9962 C   0  0  0  0  0  0  0  0  0  0  0  0
    2.9914   -1.8671   31.9232 N   0  0  0  0  0  0  0  0  0  0  0  0
    2.6557   -4.7853   30.4449 H   0  0  0  0  0  0  0  0  0  0  0  0
    3.7910   -3.5484   29.8147 H   0  0  0  0  0  0  0  0  0  0  0  0
    2.0344   -3.1933   29.9150 H   0  0  0  0  0  0  0  0  0  0  0  0
    3.4206   -4.9848   32.8334 H   0  0  0  0  0  0  0  0  0  0  0  0
    3.7417   -3.1796   34.8874 H   0  0  0  0  0  0  0  0  0  0  0  0
    1.2683    1.0354   34.4953 H   0  0  0  0  0  0  0  0  0  0  0  0
   -0.2989   -0.5158   34.9700 H   0  0  0  0  0  0  0  0  0  0  0  0
    1.0224   -1.6609   35.0206 H   0  0  0  0  0  0  0  0  0  0  0  0
   -1.1313   -1.2298   32.9837 H   0  0  0  0  0  0  0  0  0  0  0  0
    0.4213   -1.3603   32.2017 H   0  0  0  0  0  0  0  0  0  0  0  0
   -0.4637   -3.1988   35.2968 H   0  0  0  0  0  0  0  0  0  0  0  0
   -0.8153   -5.1626   36.5584 H   0  0  0  0  0  0  0  0  0  0  0  0
   -0.4346   -5.8806   38.0217 H   0  0  0  0  0  0  0  0  0  0  0  0
   -0.2678   -6.4335   40.7846 H   0  0  0  0  0  0  0  0  0  0  0  0
    2.4301   -9.4119   40.5642 H   0  0  0  0  0  0  0  0  0  0  0  0
    2.1530   -8.7722   38.1096 H   0  0  0  0  0  0  0  0  0  0  0  0
   -0.8690   -7.9908   33.9964 H   0  0  0  0  0  0  0  0  0  0  0  0
   -0.2427   -3.5497   31.0020 H   0  0  0  0  0  0  0  0  0  0  0  0
  1  2  1  0
  2  3  1  0
  3  4  2  0
  4  5  1  0
  5  6  1  0
  6  7  2  0
  6  8  2  0
  6  9  1  0
  9 10  1  0
 10 11  1  0
 11 12  1  0
 12 13  1  0
 13 14  2  0
 14 15  1  0
 15 16  1  0
 16 17  2  0
 16 18  1  0
 18 19  1  0
 19 20  1  0
 20 21  2  0
 21 22  1  0
 22 23  1  0
 14 24  1  0
 24 25  1  0
 25 26  2  0
 26 27  1  0
 27 28  2  0
 28 29  1  0
  5 30  2  0
 30  2  1  0
 29 12  2  0
 23 19  2  0
 28 24  1  0
  1 31  1  0
  1 32  1  0
  1 33  1  0
  3 34  1  0
  4 35  1  0
  9 36  1  0
 10 37  1  0
 10 38  1  0
 11 39  1  0
 11 40  1  0
 13 41  1  0
 15 42  1  0
 18 43  1  0
 20 44  1  0
 22 45  1  0
 23 46  1  0
 25 47  1  0
 29 48  1  0
M  END
>  <Energy>  (1074) 
74.227206412278576

>  <compound_id>  (1074) 
4493

>  <target_id>  (1074) 
1

>  <reference_id>  (1074) 
136

>  <inspiration_ids>  (1074) 
[159, 136]

>  <energy_score>  (1074) 
-44.101433071303774

>  <distance_score>  (1074) 
1.6695219050348686

>  <path>  (1074) 
/opt/xchem-fragalysis-2/maxwin/BulkDock/SCRATCH/505735/C4493-P136/C4493-P136.minimised.mol

>  <scratch_subdir>  (1074) 
/opt/xchem-fragalysis-2/maxwin/BulkDock/SCRATCH/505735/C4493-P136

>  <fragmenstein_runtime>  (1074) 
6.0108482837677

>  <fragmenstein_outcome>  (1074) 
too moved

>  <fragmenstein_mode>  (1074) 
expansion

>  <fragmenstein_error>  (1074) 


$$$$
C4494-P159
     RDKit          3D

 41 44  0  0  0  0  0  0  0  0999 V2000
   -0.3098   -8.2693   35.9524 O   0  0  0  0  0  0  0  0  0  0  0  0
   -0.4194   -7.1736   36.2427 C   0  0  0  0  0  0  0  0  0  0  0  0
   -0.2833   -6.4823   37.6329 N   0  0  0  0  0  0  0  0  0  0  0  0
    0.0889   -6.9934   38.8375 C   0  0  0  0  0  0  0  0  0  0  0  0
    0.5971   -8.2709   39.1275 C   0  0  0  0  0  0  0  0  0  0  0  0
    0.9888   -8.3828   40.3977 N   0  0  0  0  0  0  0  0  0  0  0  0
    0.6277   -7.2111   40.9383 N   0  0  0  0  0  0  0  0  0  0  0  0
    0.1137   -6.3261   40.0319 C   0  0  0  0  0  0  0  0  0  0  0  0
   -0.6455   -5.9209   35.3572 N   0  0  0  0  0  0  0  0  0  0  0  0
   -0.6809   -5.7938   34.0021 C   0  0  0  0  0  0  0  0  0  0  0  0
   -0.0671   -4.6896   33.5421 C   0  0  0  0  0  0  0  0  0  0  0  0
    0.8668   -4.9334   32.4494 C   0  0  0  0  0  0  0  0  0  0  0  0
    2.2871   -4.5463   32.8190 C   0  0  0  0  0  0  0  0  0  0  0  0
    2.7368   -5.5032   33.9118 N   0  0  0  0  0  0  0  0  0  0  0  0
    2.9781   -4.7746   35.4230 S   0  0  0  0  0  0  0  0  0  0  0  0
    1.6803   -4.3371   35.8932 O   0  0  0  0  0  0  0  0  0  0  0  0
    4.0822   -3.8507   35.2885 O   0  0  0  0  0  0  0  0  0  0  0  0
    3.4778   -5.9083   36.6556 C   0  0  0  0  0  0  0  0  0  0  0  0
    4.2274   -5.5080   37.7446 C   0  0  0  0  0  0  0  0  0  0  0  0
    4.4079   -6.8022   38.8475 S   0  0  0  0  0  0  0  0  0  0  0  0
    3.5166   -7.8069   37.7908 C   0  0  0  0  0  0  0  0  0  0  0  0
    3.0626   -7.2435   36.6881 N   0  0  0  0  0  0  0  0  0  0  0  0
    0.5482   -5.7985   31.4625 C   0  0  0  0  0  0  0  0  0  0  0  0
   -0.4854   -6.7452   31.7491 C   0  0  0  0  0  0  0  0  0  0  0  0
   -0.9958   -7.7415   31.0595 N   0  0  0  0  0  0  0  0  0  0  0  0
   -1.7260   -8.5140   31.9314 N   0  0  0  0  0  0  0  0  0  0  0  0
   -1.6422   -7.9759   33.1313 C   0  0  0  0  0  0  0  0  0  0  0  0
   -0.9288   -6.8146   33.0742 N   0  0  0  0  0  0  0  0  0  0  0  0
   -0.5228   -5.5101   37.5524 H   0  0  0  0  0  0  0  0  0  0  0  0
    0.7360   -9.1050   38.4581 H   0  0  0  0  0  0  0  0  0  0  0  0
    0.7833   -7.0745   41.9318 H   0  0  0  0  0  0  0  0  0  0  0  0
   -0.1757   -5.3283   40.3263 H   0  0  0  0  0  0  0  0  0  0  0  0
   -0.6150   -5.0899   35.9302 H   0  0  0  0  0  0  0  0  0  0  0  0
    0.1309   -3.8239   34.1691 H   0  0  0  0  0  0  0  0  0  0  0  0
    2.3451   -3.5005   33.1406 H   0  0  0  0  0  0  0  0  0  0  0  0
    2.9634   -4.6436   31.9667 H   0  0  0  0  0  0  0  0  0  0  0  0
    2.1247   -6.3088   34.0356 H   0  0  0  0  0  0  0  0  0  0  0  0
    4.6403   -4.5299   37.9511 H   0  0  0  0  0  0  0  0  0  0  0  0
    3.3269   -8.8449   38.0362 H   0  0  0  0  0  0  0  0  0  0  0  0
    1.2296   -6.0332   30.6547 H   0  0  0  0  0  0  0  0  0  0  0  0
   -2.1032   -8.3553   34.0320 H   0  0  0  0  0  0  0  0  0  0  0  0
  1  2  2  0
  2  3  1  0
  3  4  1  0
  4  5  1  0
  5  6  2  0
  6  7  1  0
  7  8  1  0
  2  9  1  0
  9 10  1  0
 10 11  2  0
 11 12  1  0
 12 13  1  0
 13 14  1  0
 14 15  1  0
 15 16  2  0
 15 17  2  0
 15 18  1  0
 18 19  2  0
 19 20  1  0
 20 21  1  0
 21 22  2  0
 12 23  2  0
 23 24  1  0
 24 25  2  0
 25 26  1  0
 26 27  2  0
 27 28  1  0
  8  4  2  0
 28 10  1  0
 22 18  1  0
 28 24  1  0
  3 29  1  0
  5 30  1  0
  7 31  1  0
  8 32  1  0
  9 33  1  0
 11 34  1  0
 13 35  1  0
 13 36  1  0
 14 37  1  0
 19 38  1  0
 21 39  1  0
 23 40  1  0
 27 41  1  0
M  END
>  <Energy>  (1075) 
32.36022380640383

>  <compound_id>  (1075) 
4494

>  <target_id>  (1075) 
1

>  <reference_id>  (1075) 
159

>  <inspiration_ids>  (1075) 
[159, 140]

>  <energy_score>  (1075) 
-71.10379687603992

>  <distance_score>  (1075) 
1.310033476698759

>  <path>  (1075) 
/opt/xchem-fragalysis-2/maxwin/BulkDock/SCRATCH/505735/C4494-P159/C4494-P159.minimised.mol

>  <scratch_subdir>  (1075) 
/opt/xchem-fragalysis-2/maxwin/BulkDock/SCRATCH/505735/C4494-P159

>  <fragmenstein_runtime>  (1075) 
4.361461639404297

>  <fragmenstein_outcome>  (1075) 
too moved

>  <fragmenstein_mode>  (1075) 
expansion

>  <fragmenstein_error>  (1075) 


$$$$
C4494-P140
     RDKit          3D

 41 44  0  0  0  0  0  0  0  0999 V2000
    0.0309   -7.7841   35.7608 O   0  0  0  0  0  0  0  0  0  0  0  0
   -0.2807   -6.7244   36.0326 C   0  0  0  0  0  0  0  0  0  0  0  0
   -0.3576   -6.0239   37.4223 N   0  0  0  0  0  0  0  0  0  0  0  0
    0.0137   -6.4697   38.6572 C   0  0  0  0  0  0  0  0  0  0  0  0
    0.7193   -7.6450   38.9805 C   0  0  0  0  0  0  0  0  0  0  0  0
    0.9822   -7.7420   40.2858 N   0  0  0  0  0  0  0  0  0  0  0  0
    0.3658   -6.6707   40.8020 N   0  0  0  0  0  0  0  0  0  0  0  0
   -0.1946   -5.8517   39.8601 C   0  0  0  0  0  0  0  0  0  0  0  0
   -0.6542   -5.5246   35.1203 N   0  0  0  0  0  0  0  0  0  0  0  0
   -0.6180   -5.4035   33.7634 C   0  0  0  0  0  0  0  0  0  0  0  0
    0.1573   -4.3951   33.3250 C   0  0  0  0  0  0  0  0  0  0  0  0
    1.1263   -4.7850   32.2975 C   0  0  0  0  0  0  0  0  0  0  0  0
    2.5680   -4.6005   32.7416 C   0  0  0  0  0  0  0  0  0  0  0  0
    2.8280   -5.6006   33.8718 N   0  0  0  0  0  0  0  0  0  0  0  0
    3.1276   -4.8361   35.3759 S   0  0  0  0  0  0  0  0  0  0  0  0
    1.8579   -4.2835   35.7924 O   0  0  0  0  0  0  0  0  0  0  0  0
    4.3103   -4.0229   35.2060 O   0  0  0  0  0  0  0  0  0  0  0  0
    3.5519   -5.9891   36.6203 C   0  0  0  0  0  0  0  0  0  0  0  0
    4.2079   -7.1717   36.3548 C   0  0  0  0  0  0  0  0  0  0  0  0
    4.5010   -8.0204   37.8170 S   0  0  0  0  0  0  0  0  0  0  0  0
    3.7726   -6.7509   38.6990 C   0  0  0  0  0  0  0  0  0  0  0  0
    3.3039   -5.7538   37.9816 N   0  0  0  0  0  0  0  0  0  0  0  0
    0.7755   -5.6374   31.3089 C   0  0  0  0  0  0  0  0  0  0  0  0
   -0.3437   -6.4838   31.5682 C   0  0  0  0  0  0  0  0  0  0  0  0
   -0.8719   -7.4874   30.9022 N   0  0  0  0  0  0  0  0  0  0  0  0
   -1.6512   -8.1964   31.7829 N   0  0  0  0  0  0  0  0  0  0  0  0
   -1.5711   -7.6111   32.9592 C   0  0  0  0  0  0  0  0  0  0  0  0
   -0.8564   -6.4566   32.8646 N   0  0  0  0  0  0  0  0  0  0  0  0
   -0.7512   -5.1061   37.3173 H   0  0  0  0  0  0  0  0  0  0  0  0
    1.0885   -8.4068   38.3135 H   0  0  0  0  0  0  0  0  0  0  0  0
    0.3872   -6.5452   41.8085 H   0  0  0  0  0  0  0  0  0  0  0  0
   -0.6869   -4.9325   40.1407 H   0  0  0  0  0  0  0  0  0  0  0  0
   -0.8032   -4.7016   35.6855 H   0  0  0  0  0  0  0  0  0  0  0  0
    0.4283   -3.5521   33.9571 H   0  0  0  0  0  0  0  0  0  0  0  0
    2.7591   -3.5672   33.0496 H   0  0  0  0  0  0  0  0  0  0  0  0
    3.2628   -4.8220   31.9276 H   0  0  0  0  0  0  0  0  0  0  0  0
    2.0344   -6.2305   34.0036 H   0  0  0  0  0  0  0  0  0  0  0  0
    4.5385   -7.5654   35.4053 H   0  0  0  0  0  0  0  0  0  0  0  0
    3.6847   -6.7841   39.7782 H   0  0  0  0  0  0  0  0  0  0  0  0
    1.4777   -5.9757   30.5576 H   0  0  0  0  0  0  0  0  0  0  0  0
   -2.0341   -7.9457   33.8740 H   0  0  0  0  0  0  0  0  0  0  0  0
  1  2  2  0
  2  3  1  0
  3  4  1  0
  4  5  1  0
  5  6  2  0
  6  7  1  0
  7  8  1  0
  2  9  1  0
  9 10  1  0
 10 11  2  0
 11 12  1  0
 12 13  1  0
 13 14  1  0
 14 15  1  0
 15 16  2  0
 15 17  2  0
 15 18  1  0
 18 19  2  0
 19 20  1  0
 20 21  1  0
 21 22  2  0
 12 23  2  0
 23 24  1  0
 24 25  2  0
 25 26  1  0
 26 27  2  0
 27 28  1  0
  8  4  2  0
 28 10  1  0
 22 18  1  0
 28 24  1  0
  3 29  1  0
  5 30  1  0
  7 31  1  0
  8 32  1  0
  9 33  1  0
 11 34  1  0
 13 35  1  0
 13 36  1  0
 14 37  1  0
 19 38  1  0
 21 39  1  0
 23 40  1  0
 27 41  1  0
M  END
>  <Energy>  (1076) 
42.497267391265055

>  <compound_id>  (1076) 
4494

>  <target_id>  (1076) 
1

>  <reference_id>  (1076) 
140

>  <inspiration_ids>  (1076) 
[159, 140]

>  <energy_score>  (1076) 
-60.96675329117832

>  <distance_score>  (1076) 
1.2622602446807463

>  <path>  (1076) 
/opt/xchem-fragalysis-2/maxwin/BulkDock/SCRATCH/505735/C4494-P140/C4494-P140.minimised.mol

>  <scratch_subdir>  (1076) 
/opt/xchem-fragalysis-2/maxwin/BulkDock/SCRATCH/505735/C4494-P140

>  <fragmenstein_runtime>  (1076) 
3.820687770843506

>  <fragmenstein_outcome>  (1076) 
too moved

>  <fragmenstein_mode>  (1076) 
expansion

>  <fragmenstein_error>  (1076) 


$$$$
C4494-P159
     RDKit          3D

 41 44  0  0  0  0  0  0  0  0999 V2000
   -0.2645   -8.3077   36.1770 O   0  0  0  0  0  0  0  0  0  0  0  0
   -0.0997   -7.1996   36.3736 C   0  0  0  0  0  0  0  0  0  0  0  0
    0.2201   -6.4522   37.6983 N   0  0  0  0  0  0  0  0  0  0  0  0
    0.4734   -6.9365   38.9420 C   0  0  0  0  0  0  0  0  0  0  0  0
    0.7572   -8.2626   39.3156 C   0  0  0  0  0  0  0  0  0  0  0  0
    1.0474   -8.3644   40.6133 N   0  0  0  0  0  0  0  0  0  0  0  0
    0.8788   -7.1191   41.0731 N   0  0  0  0  0  0  0  0  0  0  0  0
    0.5700   -6.2120   40.0979 C   0  0  0  0  0  0  0  0  0  0  0  0
   -0.0265   -6.0060   35.3834 N   0  0  0  0  0  0  0  0  0  0  0  0
   -0.0503   -5.9873   34.0205 C   0  0  0  0  0  0  0  0  0  0  0  0
    0.7366   -5.0872   33.4020 C   0  0  0  0  0  0  0  0  0  0  0  0
    0.9988   -5.2051   31.9700 C   0  0  0  0  0  0  0  0  0  0  0  0
    2.1012   -4.3098   31.4754 C   0  0  0  0  0  0  0  0  0  0  0  0
    2.2797   -4.4682   30.0201 N   0  0  0  0  0  0  0  0  0  0  0  0
    2.8350   -3.0407   29.3008 S   0  0  0  0  0  0  0  0  0  0  0  0
    3.9319   -2.5109   30.0758 O   0  0  0  0  0  0  0  0  0  0  0  0
    2.8906   -3.2726   27.8772 O   0  0  0  0  0  0  0  0  0  0  0  0
    1.5168   -1.9362   29.5472 C   0  0  0  0  0  0  0  0  0  0  0  0
    1.5824   -0.5974   29.2584 C   0  0  0  0  0  0  0  0  0  0  0  0
    0.0640    0.1197   29.5957 S   0  0  0  0  0  0  0  0  0  0  0  0
   -0.5415   -1.3931   30.1263 C   0  0  0  0  0  0  0  0  0  0  0  0
    0.3062   -2.3963   30.0890 N   0  0  0  0  0  0  0  0  0  0  0  0
    0.3193   -6.1049   31.2291 C   0  0  0  0  0  0  0  0  0  0  0  0
   -0.5935   -6.9845   31.8443 C   0  0  0  0  0  0  0  0  0  0  0  0
   -1.3492   -7.9297   31.3389 N   0  0  0  0  0  0  0  0  0  0  0  0
   -1.9970   -8.5228   32.3830 N   0  0  0  0  0  0  0  0  0  0  0  0
   -1.6223   -7.9269   33.4958 C   0  0  0  0  0  0  0  0  0  0  0  0
   -0.7210   -6.9355   33.2257 N   0  0  0  0  0  0  0  0  0  0  0  0
    0.2235   -5.4628   37.5354 H   0  0  0  0  0  0  0  0  0  0  0  0
    0.7941   -9.1482   38.6991 H   0  0  0  0  0  0  0  0  0  0  0  0
    1.0124   -6.9555   42.0657 H   0  0  0  0  0  0  0  0  0  0  0  0
    0.4425   -5.1655   40.3298 H   0  0  0  0  0  0  0  0  0  0  0  0
    0.2131   -5.1658   35.8828 H   0  0  0  0  0  0  0  0  0  0  0  0
    1.3040   -4.3477   33.9622 H   0  0  0  0  0  0  0  0  0  0  0  0
    1.8614   -3.2824   31.7653 H   0  0  0  0  0  0  0  0  0  0  0  0
    3.0454   -4.5561   31.9726 H   0  0  0  0  0  0  0  0  0  0  0  0
    1.3833   -4.6019   29.5434 H   0  0  0  0  0  0  0  0  0  0  0  0
    2.4069   -0.0293   28.8506 H   0  0  0  0  0  0  0  0  0  0  0  0
   -1.5651   -1.5007   30.4642 H   0  0  0  0  0  0  0  0  0  0  0  0
    0.4825   -6.2583   30.1720 H   0  0  0  0  0  0  0  0  0  0  0  0
   -1.9794   -8.1748   34.4836 H   0  0  0  0  0  0  0  0  0  0  0  0
  1  2  2  0
  2  3  1  0
  3  4  1  0
  4  5  1  0
  5  6  2  0
  6  7  1  0
  7  8  1  0
  2  9  1  0
  9 10  1  0
 10 11  2  0
 11 12  1  0
 12 13  1  0
 13 14  1  0
 14 15  1  0
 15 16  2  0
 15 17  2  0
 15 18  1  0
 18 19  2  0
 19 20  1  0
 20 21  1  0
 21 22  2  0
 12 23  2  0
 23 24  1  0
 24 25  2  0
 25 26  1  0
 26 27  2  0
 27 28  1  0
  8  4  2  0
 28 10  1  0
 22 18  1  0
 28 24  1  0
  3 29  1  0
  5 30  1  0
  7 31  1  0
  8 32  1  0
  9 33  1  0
 11 34  1  0
 13 35  1  0
 13 36  1  0
 14 37  1  0
 19 38  1  0
 21 39  1  0
 23 40  1  0
 27 41  1  0
M  END
>  <Energy>  (1077) 
11.410471108501472

>  <compound_id>  (1077) 
4494

>  <target_id>  (1077) 
1

>  <reference_id>  (1077) 
159

>  <inspiration_ids>  (1077) 
[159, 141]

>  <energy_score>  (1077) 
-103.45290679253517

>  <distance_score>  (1077) 
1.374637104079135

>  <path>  (1077) 
/opt/xchem-fragalysis-2/maxwin/BulkDock/SCRATCH/505735/C4494-P159/C4494-P159.minimised.mol

>  <scratch_subdir>  (1077) 
/opt/xchem-fragalysis-2/maxwin/BulkDock/SCRATCH/505735/C4494-P159

>  <fragmenstein_runtime>  (1077) 
2.566425323486328

>  <fragmenstein_outcome>  (1077) 
too moved

>  <fragmenstein_mode>  (1077) 
expansion

>  <fragmenstein_error>  (1077) 


$$$$
C4494-P141
     RDKit          3D

 41 44  0  0  0  0  0  0  0  0999 V2000
    2.3509   -5.9337   36.3679 O   0  0  0  0  0  0  0  0  0  0  0  0
    1.3541   -6.4925   36.3573 C   0  0  0  0  0  0  0  0  0  0  0  0
    0.6493   -7.3139   37.4774 N   0  0  0  0  0  0  0  0  0  0  0  0
    1.0773   -7.6521   38.7218 C   0  0  0  0  0  0  0  0  0  0  0  0
    2.3372   -7.4291   39.3018 C   0  0  0  0  0  0  0  0  0  0  0  0
    2.4438   -7.9961   40.5061 N   0  0  0  0  0  0  0  0  0  0  0  0
    1.2504   -8.5882   40.6817 N   0  0  0  0  0  0  0  0  0  0  0  0
    0.3716   -8.3470   39.6648 C   0  0  0  0  0  0  0  0  0  0  0  0
    0.3417   -6.7341   35.1844 N   0  0  0  0  0  0  0  0  0  0  0  0
    0.4337   -6.4174   33.8559 C   0  0  0  0  0  0  0  0  0  0  0  0
    1.4042   -5.5899   33.4242 C   0  0  0  0  0  0  0  0  0  0  0  0
    1.5868   -5.3234   32.0010 C   0  0  0  0  0  0  0  0  0  0  0  0
    2.7639   -4.4254   31.6873 C   0  0  0  0  0  0  0  0  0  0  0  0
    3.0492   -4.4902   30.2492 N   0  0  0  0  0  0  0  0  0  0  0  0
    2.7692   -3.0643   29.3974 S   0  0  0  0  0  0  0  0  0  0  0  0
    3.7465   -2.1077   29.8673 O   0  0  0  0  0  0  0  0  0  0  0  0
    2.6845   -3.4417   28.0030 O   0  0  0  0  0  0  0  0  0  0  0  0
    1.2332   -2.3665   29.8041 C   0  0  0  0  0  0  0  0  0  0  0  0
    0.6183   -1.4595   28.9732 C   0  0  0  0  0  0  0  0  0  0  0  0
   -0.8611   -0.9506   29.6607 S   0  0  0  0  0  0  0  0  0  0  0  0
   -0.5615   -1.9478   31.0195 C   0  0  0  0  0  0  0  0  0  0  0  0
    0.5532   -2.6442   30.9936 N   0  0  0  0  0  0  0  0  0  0  0  0
    0.7530   -5.8894   31.0970 C   0  0  0  0  0  0  0  0  0  0  0  0
   -0.2708   -6.7696   31.5277 C   0  0  0  0  0  0  0  0  0  0  0  0
   -1.1317   -7.5165   30.8700 N   0  0  0  0  0  0  0  0  0  0  0  0
   -1.8725   -8.2049   31.7941 N   0  0  0  0  0  0  0  0  0  0  0  0
   -1.4501   -7.8573   32.9889 C   0  0  0  0  0  0  0  0  0  0  0  0
   -0.4111   -6.9795   32.8910 N   0  0  0  0  0  0  0  0  0  0  0  0
   -0.2549   -7.6057   37.1629 H   0  0  0  0  0  0  0  0  0  0  0  0
    3.1887   -6.9012   38.8917 H   0  0  0  0  0  0  0  0  0  0  0  0
    1.1074   -9.1574   41.5100 H   0  0  0  0  0  0  0  0  0  0  0  0
   -0.6130   -8.7803   39.6971 H   0  0  0  0  0  0  0  0  0  0  0  0
   -0.4003   -7.3375   35.4959 H   0  0  0  0  0  0  0  0  0  0  0  0
    2.0943   -5.1085   34.1127 H   0  0  0  0  0  0  0  0  0  0  0  0
    2.6036   -3.4084   32.0559 H   0  0  0  0  0  0  0  0  0  0  0  0
    3.6560   -4.7822   32.2160 H   0  0  0  0  0  0  0  0  0  0  0  0
    4.0149   -4.7580   30.0606 H   0  0  0  0  0  0  0  0  0  0  0  0
    0.9457   -1.0899   28.0112 H   0  0  0  0  0  0  0  0  0  0  0  0
   -1.2594   -1.9939   31.8460 H   0  0  0  0  0  0  0  0  0  0  0  0
    0.8482   -5.7127   30.0316 H   0  0  0  0  0  0  0  0  0  0  0  0
   -1.8486   -8.2140   33.9242 H   0  0  0  0  0  0  0  0  0  0  0  0
  1  2  2  0
  2  3  1  0
  3  4  1  0
  4  5  1  0
  5  6  2  0
  6  7  1  0
  7  8  1  0
  2  9  1  0
  9 10  1  0
 10 11  2  0
 11 12  1  0
 12 13  1  0
 13 14  1  0
 14 15  1  0
 15 16  2  0
 15 17  2  0
 15 18  1  0
 18 19  2  0
 19 20  1  0
 20 21  1  0
 21 22  2  0
 12 23  2  0
 23 24  1  0
 24 25  2  0
 25 26  1  0
 26 27  2  0
 27 28  1  0
  8  4  2  0
 28 10  1  0
 22 18  1  0
 28 24  1  0
  3 29  1  0
  5 30  1  0
  7 31  1  0
  8 32  1  0
  9 33  1  0
 11 34  1  0
 13 35  1  0
 13 36  1  0
 14 37  1  0
 19 38  1  0
 21 39  1  0
 23 40  1  0
 27 41  1  0
M  END
>  <Energy>  (1078) 
4.3895614894021566

>  <compound_id>  (1078) 
4494

>  <target_id>  (1078) 
1

>  <reference_id>  (1078) 
141

>  <inspiration_ids>  (1078) 
[159, 141]

>  <energy_score>  (1078) 
-110.47381641163453

>  <distance_score>  (1078) 
1.6150582296256626

>  <path>  (1078) 
/opt/xchem-fragalysis-2/maxwin/BulkDock/SCRATCH/505735/C4494-P141/C4494-P141.minimised.mol

>  <scratch_subdir>  (1078) 
/opt/xchem-fragalysis-2/maxwin/BulkDock/SCRATCH/505735/C4494-P141

>  <fragmenstein_runtime>  (1078) 
3.0005338191986084

>  <fragmenstein_outcome>  (1078) 
too moved

>  <fragmenstein_mode>  (1078) 
expansion

>  <fragmenstein_error>  (1078) 


$$$$
C4495-P159
     RDKit          3D

 49 52  0  0  0  0  0  0  0  0999 V2000
   -2.3131    2.6587   26.7307 N   0  0  0  0  0  0  0  0  0  0  0  0
   -1.7428    1.6177   27.4498 C   0  0  0  0  0  0  0  0  0  0  0  0
   -0.8501    1.8598   28.4832 C   0  0  0  0  0  0  0  0  0  0  0  0
   -0.3268    0.7790   29.1935 C   0  0  0  0  0  0  0  0  0  0  0  0
   -0.7115   -0.5073   28.8280 C   0  0  0  0  0  0  0  0  0  0  0  0
   -0.1554   -1.9083   29.7083 S   0  0  0  0  0  0  0  0  0  0  0  0
   -0.3988   -3.1014   28.9352 O   0  0  0  0  0  0  0  0  0  0  0  0
   -0.6048   -1.7749   31.0764 O   0  0  0  0  0  0  0  0  0  0  0  0
    1.5288   -1.7132   29.6922 N   0  0  0  0  0  0  0  0  0  0  0  0
    2.3174   -2.8709   30.1791 C   0  0  0  0  0  0  0  0  0  0  0  0
    1.9916   -3.2912   31.6160 C   0  0  0  0  0  0  0  0  0  0  0  0
    1.0217   -4.4361   31.8986 C   0  0  0  0  0  0  0  0  0  0  0  0
    0.7164   -4.5675   33.3297 C   0  0  0  0  0  0  0  0  0  0  0  0
    0.0705   -5.6526   33.7875 C   0  0  0  0  0  0  0  0  0  0  0  0
    0.0245   -5.8861   35.1252 N   0  0  0  0  0  0  0  0  0  0  0  0
    0.4917   -7.1220   35.9490 C   0  0  0  0  0  0  0  0  0  0  0  0
    0.9031   -8.1265   35.6000 O   0  0  0  0  0  0  0  0  0  0  0  0
    0.2629   -6.5744   37.3894 N   0  0  0  0  0  0  0  0  0  0  0  0
    0.5773   -7.1156   38.5976 C   0  0  0  0  0  0  0  0  0  0  0  0
    1.3636   -8.2482   38.8769 C   0  0  0  0  0  0  0  0  0  0  0  0
    1.5086   -8.4458   40.1883 N   0  0  0  0  0  0  0  0  0  0  0  0
    0.7337   -7.4999   40.7375 N   0  0  0  0  0  0  0  0  0  0  0  0
    0.1906   -6.6401   39.8228 C   0  0  0  0  0  0  0  0  0  0  0  0
   -0.4261   -6.5754   32.8605 N   0  0  0  0  0  0  0  0  0  0  0  0
   -1.1889   -7.7037   33.0115 C   0  0  0  0  0  0  0  0  0  0  0  0
   -1.4978   -8.2062   31.8359 N   0  0  0  0  0  0  0  0  0  0  0  0
   -0.9181   -7.4070   30.8762 N   0  0  0  0  0  0  0  0  0  0  0  0
   -0.2795   -6.4294   31.4899 C   0  0  0  0  0  0  0  0  0  0  0  0
    0.5080   -5.3326   31.0218 C   0  0  0  0  0  0  0  0  0  0  0  0
   -1.5763   -0.6664   27.7716 C   0  0  0  0  0  0  0  0  0  0  0  0
   -2.0828    0.3798   27.0751 N   0  0  0  0  0  0  0  0  0  0  0  0
   -2.9709    2.2469   26.0688 H   0  0  0  0  0  0  0  0  0  0  0  0
   -2.7991    3.3106   27.3433 H   0  0  0  0  0  0  0  0  0  0  0  0
   -0.5803    2.8795   28.7396 H   0  0  0  0  0  0  0  0  0  0  0  0
    0.3513    0.9465   30.0250 H   0  0  0  0  0  0  0  0  0  0  0  0
    1.8292   -1.4055   28.7641 H   0  0  0  0  0  0  0  0  0  0  0  0
    3.3637   -2.5393   30.1536 H   0  0  0  0  0  0  0  0  0  0  0  0
    2.2528   -3.6966   29.4639 H   0  0  0  0  0  0  0  0  0  0  0  0
    1.6832   -2.4014   32.1810 H   0  0  0  0  0  0  0  0  0  0  0  0
    2.9456   -3.6056   32.0658 H   0  0  0  0  0  0  0  0  0  0  0  0
    1.1391   -3.8339   34.0111 H   0  0  0  0  0  0  0  0  0  0  0  0
   -0.2066   -5.1302   35.7493 H   0  0  0  0  0  0  0  0  0  0  0  0
   -0.1912   -5.6806   37.3430 H   0  0  0  0  0  0  0  0  0  0  0  0
    1.8598   -8.9183   38.1900 H   0  0  0  0  0  0  0  0  0  0  0  0
    0.6406   -7.4868   41.7481 H   0  0  0  0  0  0  0  0  0  0  0  0
   -0.4254   -5.8094   40.1344 H   0  0  0  0  0  0  0  0  0  0  0  0
   -1.4929   -8.0985   33.9702 H   0  0  0  0  0  0  0  0  0  0  0  0
    0.6981   -5.2843   29.9558 H   0  0  0  0  0  0  0  0  0  0  0  0
   -1.9184   -1.6425   27.4378 H   0  0  0  0  0  0  0  0  0  0  0  0
  1  2  1  0
  2  3  2  0
  3  4  1  0
  4  5  2  0
  5  6  1  0
  6  7  2  0
  6  8  2  0
  6  9  1  0
  9 10  1  0
 10 11  1  0
 11 12  1  0
 12 13  1  0
 13 14  2  0
 14 15  1  0
 15 16  1  0
 16 17  2  0
 16 18  1  0
 18 19  1  0
 19 20  1  0
 20 21  2  0
 21 22  1  0
 22 23  1  0
 14 24  1  0
 24 25  1  0
 25 26  2  0
 26 27  1  0
 27 28  2  0
 28 29  1  0
  5 30  1  0
 30 31  2  0
 31  2  1  0
 29 12  2  0
 23 19  2  0
 28 24  1  0
  1 32  1  0
  1 33  1  0
  3 34  1  0
  4 35  1  0
  9 36  1  0
 10 37  1  0
 10 38  1  0
 11 39  1  0
 11 40  1  0
 13 41  1  0
 15 42  1  0
 18 43  1  0
 20 44  1  0
 22 45  1  0
 23 46  1  0
 25 47  1  0
 29 48  1  0
 30 49  1  0
M  END
>  <Energy>  (1079) 
-55.050182329731896

>  <compound_id>  (1079) 
4495

>  <target_id>  (1079) 
1

>  <reference_id>  (1079) 
159

>  <inspiration_ids>  (1079) 
[159, 142]

>  <energy_score>  (1079) 
-48.193472156992385

>  <distance_score>  (1079) 
0.6860338988614273

>  <path>  (1079) 
/opt/xchem-fragalysis-2/maxwin/BulkDock/SCRATCH/505735/C4495-P159/C4495-P159.minimised.mol

>  <scratch_subdir>  (1079) 
/opt/xchem-fragalysis-2/maxwin/BulkDock/SCRATCH/505735/C4495-P159

>  <fragmenstein_runtime>  (1079) 
8.000932216644287

>  <fragmenstein_outcome>  (1079) 
acceptable

>  <fragmenstein_mode>  (1079) 
expansion

>  <fragmenstein_error>  (1079) 


$$$$
C4495-P142
     RDKit          3D

 49 52  0  0  0  0  0  0  0  0999 V2000
   -2.3043    2.5923   26.8251 N   0  0  0  0  0  0  0  0  0  0  0  0
   -1.7095    1.5353   27.5016 C   0  0  0  0  0  0  0  0  0  0  0  0
   -0.7905    1.7509   28.5191 C   0  0  0  0  0  0  0  0  0  0  0  0
   -0.2602    0.6537   29.2016 C   0  0  0  0  0  0  0  0  0  0  0  0
   -0.6731   -0.6212   28.8299 C   0  0  0  0  0  0  0  0  0  0  0  0
   -0.1014   -2.0622   29.6377 S   0  0  0  0  0  0  0  0  0  0  0  0
   -0.1476   -3.1679   28.7100 O   0  0  0  0  0  0  0  0  0  0  0  0
   -0.7180   -2.1194   30.9433 O   0  0  0  0  0  0  0  0  0  0  0  0
    1.5555   -1.7732   29.8677 N   0  0  0  0  0  0  0  0  0  0  0  0
    2.3573   -2.9445   30.3123 C   0  0  0  0  0  0  0  0  0  0  0  0
    2.0236   -3.4643   31.7201 C   0  0  0  0  0  0  0  0  0  0  0  0
    1.1786   -4.7241   31.9168 C   0  0  0  0  0  0  0  0  0  0  0  0
    1.1611   -5.2069   33.3097 C   0  0  0  0  0  0  0  0  0  0  0  0
    0.3962   -6.2539   33.6841 C   0  0  0  0  0  0  0  0  0  0  0  0
    0.4418   -6.7566   34.9619 N   0  0  0  0  0  0  0  0  0  0  0  0
    1.3931   -6.4030   36.1587 C   0  0  0  0  0  0  0  0  0  0  0  0
    2.2996   -5.7063   36.2003 O   0  0  0  0  0  0  0  0  0  0  0  0
    0.7592   -7.3024   37.2696 N   0  0  0  0  0  0  0  0  0  0  0  0
    1.1743   -7.5559   38.5412 C   0  0  0  0  0  0  0  0  0  0  0  0
    2.3880   -7.1937   39.1506 C   0  0  0  0  0  0  0  0  0  0  0  0
    2.4882   -7.6629   40.3982 N   0  0  0  0  0  0  0  0  0  0  0  0
    1.3137   -8.2790   40.5965 N   0  0  0  0  0  0  0  0  0  0  0  0
    0.4936   -8.2432   39.5089 C   0  0  0  0  0  0  0  0  0  0  0  0
   -0.3910   -6.8524   32.6957 N   0  0  0  0  0  0  0  0  0  0  0  0
   -1.3143   -7.8558   32.7512 C   0  0  0  0  0  0  0  0  0  0  0  0
   -1.7041   -8.1897   31.5426 N   0  0  0  0  0  0  0  0  0  0  0  0
   -1.0666   -7.3573   30.6576 N   0  0  0  0  0  0  0  0  0  0  0  0
   -0.3203   -6.5227   31.3522 C   0  0  0  0  0  0  0  0  0  0  0  0
    0.4946   -5.4163   30.9776 C   0  0  0  0  0  0  0  0  0  0  0  0
   -1.5742   -0.7511   27.7957 C   0  0  0  0  0  0  0  0  0  0  0  0
   -2.0816    0.3089   27.1208 N   0  0  0  0  0  0  0  0  0  0  0  0
   -2.9592    2.1803   26.1604 H   0  0  0  0  0  0  0  0  0  0  0  0
   -2.8175    3.1891   27.4722 H   0  0  0  0  0  0  0  0  0  0  0  0
   -0.5034    2.7635   28.7845 H   0  0  0  0  0  0  0  0  0  0  0  0
    0.4404    0.8042   30.0172 H   0  0  0  0  0  0  0  0  0  0  0  0
    1.9453   -1.3397   29.0278 H   0  0  0  0  0  0  0  0  0  0  0  0
    3.3957   -2.5867   30.3273 H   0  0  0  0  0  0  0  0  0  0  0  0
    2.3354   -3.7318   29.5519 H   0  0  0  0  0  0  0  0  0  0  0  0
    1.5889   -2.6523   32.3176 H   0  0  0  0  0  0  0  0  0  0  0  0
    2.9968   -3.6869   32.1833 H   0  0  0  0  0  0  0  0  0  0  0  0
    1.8007   -4.6895   34.0203 H   0  0  0  0  0  0  0  0  0  0  0  0
   -0.2115   -7.4709   35.2464 H   0  0  0  0  0  0  0  0  0  0  0  0
   -0.0830   -7.7282   36.9213 H   0  0  0  0  0  0  0  0  0  0  0  0
    3.2109   -6.6279   38.7324 H   0  0  0  0  0  0  0  0  0  0  0  0
    1.1437   -8.7142   41.4968 H   0  0  0  0  0  0  0  0  0  0  0  0
   -0.4586   -8.7417   39.5365 H   0  0  0  0  0  0  0  0  0  0  0  0
   -1.6619   -8.2967   33.6698 H   0  0  0  0  0  0  0  0  0  0  0  0
    0.4875   -5.1416   29.9313 H   0  0  0  0  0  0  0  0  0  0  0  0
   -1.9497   -1.7167   27.4666 H   0  0  0  0  0  0  0  0  0  0  0  0
  1  2  1  0
  2  3  2  0
  3  4  1  0
  4  5  2  0
  5  6  1  0
  6  7  2  0
  6  8  2  0
  6  9  1  0
  9 10  1  0
 10 11  1  0
 11 12  1  0
 12 13  1  0
 13 14  2  0
 14 15  1  0
 15 16  1  0
 16 17  2  0
 16 18  1  0
 18 19  1  0
 19 20  1  0
 20 21  2  0
 21 22  1  0
 22 23  1  0
 14 24  1  0
 24 25  1  0
 25 26  2  0
 26 27  1  0
 27 28  2  0
 28 29  1  0
  5 30  1  0
 30 31  2  0
 31  2  1  0
 29 12  2  0
 23 19  2  0
 28 24  1  0
  1 32  1  0
  1 33  1  0
  3 34  1  0
  4 35  1  0
  9 36  1  0
 10 37  1  0
 10 38  1  0
 11 39  1  0
 11 40  1  0
 13 41  1  0
 15 42  1  0
 18 43  1  0
 20 44  1  0
 22 45  1  0
 23 46  1  0
 25 47  1  0
 29 48  1  0
 30 49  1  0
M  END
>  <Energy>  (1080) 
-63.460235797733816

>  <compound_id>  (1080) 
4495

>  <target_id>  (1080) 
1

>  <reference_id>  (1080) 
142

>  <inspiration_ids>  (1080) 
[159, 142]

>  <energy_score>  (1080) 
-56.60352562499327

>  <distance_score>  (1080) 
0.9787451395307228

>  <path>  (1080) 
/opt/xchem-fragalysis-2/maxwin/BulkDock/SCRATCH/505735/C4495-P142/C4495-P142.minimised.mol

>  <scratch_subdir>  (1080) 
/opt/xchem-fragalysis-2/maxwin/BulkDock/SCRATCH/505735/C4495-P142

>  <fragmenstein_runtime>  (1080) 
8.778657913208008

>  <fragmenstein_outcome>  (1080) 
acceptable

>  <fragmenstein_mode>  (1080) 
expansion

>  <fragmenstein_error>  (1080) 


$$$$
C4495-P159
     RDKit          3D

 49 52  0  0  0  0  0  0  0  0999 V2000
   -2.0414   -2.3212   34.8306 N   0  0  0  0  0  0  0  0  0  0  0  0
   -1.6713   -1.8922   33.5616 C   0  0  0  0  0  0  0  0  0  0  0  0
   -0.7692   -0.8443   33.4126 C   0  0  0  0  0  0  0  0  0  0  0  0
   -0.3304   -0.5115   32.1349 C   0  0  0  0  0  0  0  0  0  0  0  0
   -0.8294   -1.2392   31.0631 C   0  0  0  0  0  0  0  0  0  0  0  0
   -0.2003   -1.0694   29.4382 S   0  0  0  0  0  0  0  0  0  0  0  0
    0.9969   -0.2618   29.4947 O   0  0  0  0  0  0  0  0  0  0  0  0
   -1.3255   -0.7429   28.5977 O   0  0  0  0  0  0  0  0  0  0  0  0
    0.2512   -2.6587   29.0912 N   0  0  0  0  0  0  0  0  0  0  0  0
    1.5970   -3.1403   29.4512 C   0  0  0  0  0  0  0  0  0  0  0  0
    1.7432   -3.5471   30.9354 C   0  0  0  0  0  0  0  0  0  0  0  0
    0.9606   -4.7452   31.4551 C   0  0  0  0  0  0  0  0  0  0  0  0
    1.0698   -5.0407   32.8992 C   0  0  0  0  0  0  0  0  0  0  0  0
    0.3406   -6.0341   33.4557 C   0  0  0  0  0  0  0  0  0  0  0  0
    0.4112   -6.3804   34.7831 N   0  0  0  0  0  0  0  0  0  0  0  0
    1.4488   -6.0709   35.8219 C   0  0  0  0  0  0  0  0  0  0  0  0
    2.4059   -5.3927   35.7581 O   0  0  0  0  0  0  0  0  0  0  0  0
    0.9622   -6.9558   36.9296 N   0  0  0  0  0  0  0  0  0  0  0  0
    1.5359   -7.2854   38.1210 C   0  0  0  0  0  0  0  0  0  0  0  0
    2.7609   -6.8819   38.6823 C   0  0  0  0  0  0  0  0  0  0  0  0
    2.9993   -7.4801   39.8542 N   0  0  0  0  0  0  0  0  0  0  0  0
    1.9195   -8.2598   40.0405 N   0  0  0  0  0  0  0  0  0  0  0  0
    1.0041   -8.1633   39.0304 C   0  0  0  0  0  0  0  0  0  0  0  0
   -0.4801   -6.7872   32.6032 N   0  0  0  0  0  0  0  0  0  0  0  0
   -1.3198   -7.8439   32.8404 C   0  0  0  0  0  0  0  0  0  0  0  0
   -1.7660   -8.3357   31.7075 N   0  0  0  0  0  0  0  0  0  0  0  0
   -1.2637   -7.5622   30.6930 N   0  0  0  0  0  0  0  0  0  0  0  0
   -0.5213   -6.6204   31.2328 C   0  0  0  0  0  0  0  0  0  0  0  0
    0.1929   -5.5334   30.6759 C   0  0  0  0  0  0  0  0  0  0  0  0
   -1.7693   -2.2231   31.2873 C   0  0  0  0  0  0  0  0  0  0  0  0
   -2.1878   -2.5754   32.5211 N   0  0  0  0  0  0  0  0  0  0  0  0
   -2.4617   -1.5803   35.3759 H   0  0  0  0  0  0  0  0  0  0  0  0
   -2.6844   -3.1106   34.6903 H   0  0  0  0  0  0  0  0  0  0  0  0
   -0.3703   -0.3329   34.2824 H   0  0  0  0  0  0  0  0  0  0  0  0
    0.4169    0.2641   31.9916 H   0  0  0  0  0  0  0  0  0  0  0  0
   -0.1570   -2.9475   28.1976 H   0  0  0  0  0  0  0  0  0  0  0  0
    2.3441   -2.3802   29.1977 H   0  0  0  0  0  0  0  0  0  0  0  0
    1.8302   -3.9978   28.8085 H   0  0  0  0  0  0  0  0  0  0  0  0
    1.5192   -2.6804   31.5654 H   0  0  0  0  0  0  0  0  0  0  0  0
    2.8073   -3.7679   31.0980 H   0  0  0  0  0  0  0  0  0  0  0  0
    1.7352   -4.4184   33.4931 H   0  0  0  0  0  0  0  0  0  0  0  0
   -0.2271   -7.0613   35.1451 H   0  0  0  0  0  0  0  0  0  0  0  0
    0.0674   -7.3289   36.6871 H   0  0  0  0  0  0  0  0  0  0  0  0
    3.4924   -6.1895   38.2845 H   0  0  0  0  0  0  0  0  0  0  0  0
    1.8768   -8.8429   40.8713 H   0  0  0  0  0  0  0  0  0  0  0  0
    0.1035   -8.7567   39.0555 H   0  0  0  0  0  0  0  0  0  0  0  0
   -1.5595   -8.2246   33.8213 H   0  0  0  0  0  0  0  0  0  0  0  0
    0.0725   -5.3514   29.6182 H   0  0  0  0  0  0  0  0  0  0  0  0
   -2.1918   -2.7940   30.4666 H   0  0  0  0  0  0  0  0  0  0  0  0
  1  2  1  0
  2  3  2  0
  3  4  1  0
  4  5  2  0
  5  6  1  0
  6  7  2  0
  6  8  2  0
  6  9  1  0
  9 10  1  0
 10 11  1  0
 11 12  1  0
 12 13  1  0
 13 14  2  0
 14 15  1  0
 15 16  1  0
 16 17  2  0
 16 18  1  0
 18 19  1  0
 19 20  1  0
 20 21  2  0
 21 22  1  0
 22 23  1  0
 14 24  1  0
 24 25  1  0
 25 26  2  0
 26 27  1  0
 27 28  2  0
 28 29  1  0
  5 30  1  0
 30 31  2  0
 31  2  1  0
 29 12  2  0
 23 19  2  0
 28 24  1  0
  1 32  1  0
  1 33  1  0
  3 34  1  0
  4 35  1  0
  9 36  1  0
 10 37  1  0
 10 38  1  0
 11 39  1  0
 11 40  1  0
 13 41  1  0
 15 42  1  0
 18 43  1  0
 20 44  1  0
 22 45  1  0
 23 46  1  0
 25 47  1  0
 29 48  1  0
 30 49  1  0
M  END
>  <Energy>  (1081) 
-79.818246179921928

>  <compound_id>  (1081) 
4495

>  <target_id>  (1081) 
1

>  <reference_id>  (1081) 
159

>  <inspiration_ids>  (1081) 
[159, 147]

>  <energy_score>  (1081) 
-69.9999518227394

>  <distance_score>  (1081) 
1.3433721463136192

>  <path>  (1081) 
/opt/xchem-fragalysis-2/maxwin/BulkDock/SCRATCH/505735/C4495-P159/C4495-P159.minimised.mol

>  <scratch_subdir>  (1081) 
/opt/xchem-fragalysis-2/maxwin/BulkDock/SCRATCH/505735/C4495-P159

>  <fragmenstein_runtime>  (1081) 
20.413461446762085

>  <fragmenstein_outcome>  (1081) 
too moved

>  <fragmenstein_mode>  (1081) 
expansion

>  <fragmenstein_error>  (1081) 


$$$$
C4495-P147
     RDKit          3D

 49 52  0  0  0  0  0  0  0  0999 V2000
    1.2941    4.2398   26.5716 N   0  0  0  0  0  0  0  0  0  0  0  0
    1.0000    2.9578   27.0212 C   0  0  0  0  0  0  0  0  0  0  0  0
    2.0085    2.1241   27.4877 C   0  0  0  0  0  0  0  0  0  0  0  0
    1.6713    0.8564   27.9551 C   0  0  0  0  0  0  0  0  0  0  0  0
    0.3318    0.4783   27.9491 C   0  0  0  0  0  0  0  0  0  0  0  0
   -0.1620   -1.0776   28.5700 S   0  0  0  0  0  0  0  0  0  0  0  0
    0.6525   -2.1240   28.0054 O   0  0  0  0  0  0  0  0  0  0  0  0
   -1.6006   -1.1399   28.6802 O   0  0  0  0  0  0  0  0  0  0  0  0
    0.3914   -0.9647   30.1701 N   0  0  0  0  0  0  0  0  0  0  0  0
    0.8545   -2.2619   30.7297 C   0  0  0  0  0  0  0  0  0  0  0  0
   -0.3200   -3.2250   30.7663 C   0  0  0  0  0  0  0  0  0  0  0  0
   -0.0842   -4.5248   31.4478 C   0  0  0  0  0  0  0  0  0  0  0  0
    0.0106   -4.5333   32.9057 C   0  0  0  0  0  0  0  0  0  0  0  0
   -0.1671   -5.6965   33.5523 C   0  0  0  0  0  0  0  0  0  0  0  0
    0.0265   -5.7983   34.8960 N   0  0  0  0  0  0  0  0  0  0  0  0
    0.6794   -6.9408   35.7404 C   0  0  0  0  0  0  0  0  0  0  0  0
    1.2009   -7.8996   35.4044 O   0  0  0  0  0  0  0  0  0  0  0  0
    0.3547   -6.4199   37.1755 N   0  0  0  0  0  0  0  0  0  0  0  0
    0.6882   -6.9289   38.3948 C   0  0  0  0  0  0  0  0  0  0  0  0
    1.5679   -7.9853   38.6982 C   0  0  0  0  0  0  0  0  0  0  0  0
    1.6827   -8.1817   40.0129 N   0  0  0  0  0  0  0  0  0  0  0  0
    0.7966   -7.3245   40.5382 N   0  0  0  0  0  0  0  0  0  0  0  0
    0.2132   -6.5057   39.6092 C   0  0  0  0  0  0  0  0  0  0  0  0
   -0.5319   -6.8114   32.7861 N   0  0  0  0  0  0  0  0  0  0  0  0
   -1.1538   -7.9670   33.1448 C   0  0  0  0  0  0  0  0  0  0  0  0
   -1.4788   -8.6665   32.0796 N   0  0  0  0  0  0  0  0  0  0  0  0
   -1.0664   -7.9717   30.9765 N   0  0  0  0  0  0  0  0  0  0  0  0
   -0.5356   -6.8484   31.4052 C   0  0  0  0  0  0  0  0  0  0  0  0
   -0.1925   -5.6612   30.7297 C   0  0  0  0  0  0  0  0  0  0  0  0
   -0.6140    1.3649   27.4759 C   0  0  0  0  0  0  0  0  0  0  0  0
   -0.2961    2.5981   27.0061 N   0  0  0  0  0  0  0  0  0  0  0  0
    2.0030    4.2353   25.8477 H   0  0  0  0  0  0  0  0  0  0  0  0
    0.4215    4.6517   26.2479 H   0  0  0  0  0  0  0  0  0  0  0  0
    3.0410    2.4566   27.4931 H   0  0  0  0  0  0  0  0  0  0  0  0
    2.4402    0.1823   28.3215 H   0  0  0  0  0  0  0  0  0  0  0  0
   -0.3531   -0.5456   30.7312 H   0  0  0  0  0  0  0  0  0  0  0  0
    1.2136   -2.0584   31.7451 H   0  0  0  0  0  0  0  0  0  0  0  0
    1.7083   -2.6555   30.1690 H   0  0  0  0  0  0  0  0  0  0  0  0
   -0.6831   -3.4252   29.7516 H   0  0  0  0  0  0  0  0  0  0  0  0
   -1.1692   -2.7327   31.2637 H   0  0  0  0  0  0  0  0  0  0  0  0
    0.2869   -3.6214   33.4248 H   0  0  0  0  0  0  0  0  0  0  0  0
   -0.2738   -5.0550   35.5058 H   0  0  0  0  0  0  0  0  0  0  0  0
   -0.1859   -5.5769   37.1148 H   0  0  0  0  0  0  0  0  0  0  0  0
    2.1489   -8.6011   38.0265 H   0  0  0  0  0  0  0  0  0  0  0  0
    0.6619   -7.3353   41.5440 H   0  0  0  0  0  0  0  0  0  0  0  0
   -0.4900   -5.7410   39.9043 H   0  0  0  0  0  0  0  0  0  0  0  0
   -1.3731   -8.2144   34.1706 H   0  0  0  0  0  0  0  0  0  0  0  0
   -0.2904   -5.6499   29.6493 H   0  0  0  0  0  0  0  0  0  0  0  0
   -1.6743    1.1242   27.4481 H   0  0  0  0  0  0  0  0  0  0  0  0
  1  2  1  0
  2  3  2  0
  3  4  1  0
  4  5  2  0
  5  6  1  0
  6  7  2  0
  6  8  2  0
  6  9  1  0
  9 10  1  0
 10 11  1  0
 11 12  1  0
 12 13  1  0
 13 14  2  0
 14 15  1  0
 15 16  1  0
 16 17  2  0
 16 18  1  0
 18 19  1  0
 19 20  1  0
 20 21  2  0
 21 22  1  0
 22 23  1  0
 14 24  1  0
 24 25  1  0
 25 26  2  0
 26 27  1  0
 27 28  2  0
 28 29  1  0
  5 30  1  0
 30 31  2  0
 31  2  1  0
 29 12  2  0
 23 19  2  0
 28 24  1  0
  1 32  1  0
  1 33  1  0
  3 34  1  0
  4 35  1  0
  9 36  1  0
 10 37  1  0
 10 38  1  0
 11 39  1  0
 11 40  1  0
 13 41  1  0
 15 42  1  0
 18 43  1  0
 20 44  1  0
 22 45  1  0
 23 46  1  0
 25 47  1  0
 29 48  1  0
 30 49  1  0
M  END
>  <Energy>  (1082) 
-51.276569072957152

>  <compound_id>  (1082) 
4495

>  <target_id>  (1082) 
1

>  <reference_id>  (1082) 
147

>  <inspiration_ids>  (1082) 
[159, 147]

>  <energy_score>  (1082) 
-50.96655992274941

>  <distance_score>  (1082) 
1.066126028542355

>  <path>  (1082) 
/opt/xchem-fragalysis-2/maxwin/BulkDock/SCRATCH/505735/C4495-P147/C4495-P147.minimised.mol

>  <scratch_subdir>  (1082) 
/opt/xchem-fragalysis-2/maxwin/BulkDock/SCRATCH/505735/C4495-P147

>  <fragmenstein_runtime>  (1082) 
20.093544244766235

>  <fragmenstein_outcome>  (1082) 
too moved

>  <fragmenstein_mode>  (1082) 
expansion

>  <fragmenstein_error>  (1082) 


$$$$
C4510-P159
     RDKit          3D

 53 57  0  0  0  0  0  0  0  0999 V2000
   -0.9947   -6.5048   37.6058 O   0  0  0  0  0  0  0  0  0  0  0  0
   -0.2208   -5.8463   37.0375 C   0  0  0  0  0  0  0  0  0  0  0  0
    0.8249   -5.1095   37.8068 C   0  0  0  0  0  0  0  0  0  0  0  0
    1.9649   -6.1007   38.1070 C   0  0  0  0  0  0  0  0  0  0  0  0
    2.6584   -5.7740   39.4907 C   0  0  0  0  0  0  0  0  0  0  0  0
    2.8648   -6.6781   40.5579 C   0  0  0  0  0  0  0  0  0  0  0  0
    3.4467   -5.9067   41.5311 C   0  0  0  0  0  0  0  0  0  0  0  0
    3.5672   -4.6302   41.0935 O   0  0  0  0  0  0  0  0  0  0  0  0
    3.0555   -4.5350   39.8111 N   0  0  0  0  0  0  0  0  0  0  0  0
    1.7191   -7.6644   37.9529 C   0  0  0  0  0  0  0  0  0  0  0  0
    3.0617   -7.7430   37.3155 N   0  0  0  0  0  0  0  0  0  0  0  0
    2.8851   -6.3548   36.8530 C   0  0  0  0  0  0  0  0  0  0  0  0
    4.1446   -5.6438   36.8564 N   0  0  0  0  0  0  0  0  0  0  0  0
    4.0196   -4.2049   36.6026 C   0  0  0  0  0  0  0  0  0  0  0  0
    3.7375   -3.7804   35.1808 C   0  0  0  0  0  0  0  0  0  0  0  0
    4.1553   -4.2813   33.9551 C   0  0  0  0  0  0  0  0  0  0  0  0
    3.8739   -3.3004   32.9831 C   0  0  0  0  0  0  0  0  0  0  0  0
    4.4090   -3.3986   31.1913 Br  0  0  0  0  0  0  0  0  0  0  0  0
    3.2135   -2.2653   33.5896 C   0  0  0  0  0  0  0  0  0  0  0  0
    3.1100   -2.5719   34.9230 N   0  0  0  0  0  0  0  0  0  0  0  0
    0.0060   -5.6505   35.5208 N   0  0  0  0  0  0  0  0  0  0  0  0
   -0.5763   -6.2618   34.4552 C   0  0  0  0  0  0  0  0  0  0  0  0
   -1.3341   -7.3493   34.6552 C   0  0  0  0  0  0  0  0  0  0  0  0
   -1.7831   -8.1434   33.6455 N   0  0  0  0  0  0  0  0  0  0  0  0
   -1.4247   -7.9796   32.3414 C   0  0  0  0  0  0  0  0  0  0  0  0
   -1.7509   -8.7594   31.4584 O   0  0  0  0  0  0  0  0  0  0  0  0
   -0.6024   -6.7916   32.0442 C   0  0  0  0  0  0  0  0  0  0  0  0
   -0.2595   -6.5576   30.7202 C   0  0  0  0  0  0  0  0  0  0  0  0
    0.4200   -5.3948   30.3965 C   0  0  0  0  0  0  0  0  0  0  0  0
    0.7505   -4.4800   31.3863 C   0  0  0  0  0  0  0  0  0  0  0  0
    0.4441   -4.7378   32.7198 C   0  0  0  0  0  0  0  0  0  0  0  0
   -0.2247   -5.9101   33.0720 C   0  0  0  0  0  0  0  0  0  0  0  0
    0.3489   -4.7574   38.7312 H   0  0  0  0  0  0  0  0  0  0  0  0
    1.1628   -4.2179   37.2734 H   0  0  0  0  0  0  0  0  0  0  0  0
    2.6366   -7.7295   40.6393 H   0  0  0  0  0  0  0  0  0  0  0  0
    3.8066   -6.0947   42.5317 H   0  0  0  0  0  0  0  0  0  0  0  0
    0.9428   -7.9997   37.2560 H   0  0  0  0  0  0  0  0  0  0  0  0
    1.5959   -8.2756   38.8495 H   0  0  0  0  0  0  0  0  0  0  0  0
    3.8286   -7.8155   37.9870 H   0  0  0  0  0  0  0  0  0  0  0  0
    2.3994   -6.3347   35.8738 H   0  0  0  0  0  0  0  0  0  0  0  0
    4.8360   -6.0340   36.2205 H   0  0  0  0  0  0  0  0  0  0  0  0
    3.2932   -3.7422   37.2751 H   0  0  0  0  0  0  0  0  0  0  0  0
    4.9830   -3.7551   36.8766 H   0  0  0  0  0  0  0  0  0  0  0  0
    4.7172   -5.1948   33.8095 H   0  0  0  0  0  0  0  0  0  0  0  0
    2.8420   -1.3243   33.2057 H   0  0  0  0  0  0  0  0  0  0  0  0
    2.7442   -1.9452   35.6307 H   0  0  0  0  0  0  0  0  0  0  0  0
    0.8211   -5.0673   35.3729 H   0  0  0  0  0  0  0  0  0  0  0  0
   -1.5650   -7.7268   35.6426 H   0  0  0  0  0  0  0  0  0  0  0  0
   -2.2790   -8.9984   33.8735 H   0  0  0  0  0  0  0  0  0  0  0  0
   -0.5553   -7.2613   29.9514 H   0  0  0  0  0  0  0  0  0  0  0  0
    0.6723   -5.1602   29.3671 H   0  0  0  0  0  0  0  0  0  0  0  0
    1.2402   -3.5471   31.1151 H   0  0  0  0  0  0  0  0  0  0  0  0
    0.7036   -3.9902   33.4627 H   0  0  0  0  0  0  0  0  0  0  0  0
  1  2  2  0
  2  3  1  0
  3  4  1  0
  4  5  1  0
  5  6  1  0
  6  7  2  0
  7  8  1  0
  8  9  1  0
  4 10  1  0
 10 11  1  0
 11 12  1  0
 12 13  1  0
 13 14  1  0
 14 15  1  0
 15 16  2  0
 16 17  1  0
 17 18  1  0
 17 19  2  0
 19 20  1  0
  2 21  1  0
 21 22  1  0
 22 23  2  0
 23 24  1  0
 24 25  1  0
 25 26  2  0
 25 27  1  0
 27 28  2  0
 28 29  1  0
 29 30  2  0
 30 31  1  0
 31 32  2  0
 12  4  1  0
 20 15  1  0
 32 22  1  0
  9  5  2  0
 32 27  1  0
  3 33  1  0
  3 34  1  0
  6 35  1  0
  7 36  1  0
 10 37  1  0
 10 38  1  0
 11 39  1  0
 12 40  1  0
 13 41  1  0
 14 42  1  0
 14 43  1  0
 16 44  1  0
 19 45  1  0
 20 46  1  0
 21 47  1  0
 23 48  1  0
 24 49  1  0
 28 50  1  0
 29 51  1  0
 30 52  1  0
 31 53  1  0
M  END
>  <Energy>  (1083) 
10.600037649081445

>  <compound_id>  (1083) 
4510

>  <target_id>  (1083) 
1

>  <reference_id>  (1083) 
159

>  <inspiration_ids>  (1083) 
[159, 156]

>  <energy_score>  (1083) 
-48.42947841898996

>  <distance_score>  (1083) 
2.127634187354301

>  <path>  (1083) 
/opt/xchem-fragalysis-2/maxwin/BulkDock/SCRATCH/505735/C4510-P159/C4510-P159.minimised.mol

>  <scratch_subdir>  (1083) 
/opt/xchem-fragalysis-2/maxwin/BulkDock/SCRATCH/505735/C4510-P159

>  <fragmenstein_runtime>  (1083) 
37.311848878860474

>  <fragmenstein_outcome>  (1083) 
too moved

>  <fragmenstein_mode>  (1083) 
expansion

>  <fragmenstein_error>  (1083) 


$$$$
C4510-P156
     RDKit          3D

 53 57  0  0  0  0  0  0  0  0999 V2000
    0.1895   -3.4004   35.4597 O   0  0  0  0  0  0  0  0  0  0  0  0
   -0.1051   -4.3251   36.1119 C   0  0  0  0  0  0  0  0  0  0  0  0
   -0.1298   -4.3171   37.6371 C   0  0  0  0  0  0  0  0  0  0  0  0
    1.1172   -4.9503   38.2586 C   0  0  0  0  0  0  0  0  0  0  0  0
    1.1035   -6.5306   38.3735 C   0  0  0  0  0  0  0  0  0  0  0  0
    2.0652   -7.3280   39.0415 C   0  0  0  0  0  0  0  0  0  0  0  0
    1.4653   -8.5477   39.1412 C   0  0  0  0  0  0  0  0  0  0  0  0
    0.2631   -8.5037   38.5248 O   0  0  0  0  0  0  0  0  0  0  0  0
    0.0332   -7.2430   38.0222 N   0  0  0  0  0  0  0  0  0  0  0  0
    1.5043   -4.3784   39.6586 C   0  0  0  0  0  0  0  0  0  0  0  0
    2.9239   -4.4171   39.1835 N   0  0  0  0  0  0  0  0  0  0  0  0
    2.4130   -4.2006   37.8170 C   0  0  0  0  0  0  0  0  0  0  0  0
    3.1265   -4.9492   36.7989 N   0  0  0  0  0  0  0  0  0  0  0  0
    4.1741   -4.1289   36.1877 C   0  0  0  0  0  0  0  0  0  0  0  0
    3.8068   -3.5468   34.8523 C   0  0  0  0  0  0  0  0  0  0  0  0
    4.3709   -3.7830   33.6048 C   0  0  0  0  0  0  0  0  0  0  0  0
    3.8768   -2.8034   32.7276 C   0  0  0  0  0  0  0  0  0  0  0  0
    4.4142   -2.6181   30.9442 Br  0  0  0  0  0  0  0  0  0  0  0  0
    2.9729   -2.0332   33.4093 C   0  0  0  0  0  0  0  0  0  0  0  0
    2.8837   -2.5364   34.6853 N   0  0  0  0  0  0  0  0  0  0  0  0
   -0.5729   -5.7468   35.6911 N   0  0  0  0  0  0  0  0  0  0  0  0
   -0.6769   -6.3206   34.4471 C   0  0  0  0  0  0  0  0  0  0  0  0
   -1.3025   -7.5075   34.5115 C   0  0  0  0  0  0  0  0  0  0  0  0
   -1.6475   -8.2519   33.4354 N   0  0  0  0  0  0  0  0  0  0  0  0
   -1.3419   -7.9483   32.1535 C   0  0  0  0  0  0  0  0  0  0  0  0
   -1.6557   -8.6647   31.2121 O   0  0  0  0  0  0  0  0  0  0  0  0
   -0.5860   -6.6998   31.9756 C   0  0  0  0  0  0  0  0  0  0  0  0
   -0.2166   -6.4088   30.6606 C   0  0  0  0  0  0  0  0  0  0  0  0
    0.4753   -5.2474   30.4018 C   0  0  0  0  0  0  0  0  0  0  0  0
    0.8185   -4.4193   31.4572 C   0  0  0  0  0  0  0  0  0  0  0  0
    0.4790   -4.7422   32.7791 C   0  0  0  0  0  0  0  0  0  0  0  0
   -0.2616   -5.8752   33.0877 C   0  0  0  0  0  0  0  0  0  0  0  0
   -1.0540   -4.7780   38.0059 H   0  0  0  0  0  0  0  0  0  0  0  0
   -0.2090   -3.2609   37.9297 H   0  0  0  0  0  0  0  0  0  0  0  0
    3.0096   -7.0395   39.4768 H   0  0  0  0  0  0  0  0  0  0  0  0
    1.7246   -9.4897   39.6015 H   0  0  0  0  0  0  0  0  0  0  0  0
    1.3004   -4.9937   40.5404 H   0  0  0  0  0  0  0  0  0  0  0  0
    1.1444   -3.3623   39.8676 H   0  0  0  0  0  0  0  0  0  0  0  0
    3.5012   -3.6571   39.5426 H   0  0  0  0  0  0  0  0  0  0  0  0
    2.2480   -3.1396   37.5802 H   0  0  0  0  0  0  0  0  0  0  0  0
    3.5714   -5.7741   37.1973 H   0  0  0  0  0  0  0  0  0  0  0  0
    4.5247   -3.3326   36.8573 H   0  0  0  0  0  0  0  0  0  0  0  0
    5.0476   -4.7767   36.0336 H   0  0  0  0  0  0  0  0  0  0  0  0
    5.1282   -4.5259   33.3917 H   0  0  0  0  0  0  0  0  0  0  0  0
    2.3570   -1.1987   33.1034 H   0  0  0  0  0  0  0  0  0  0  0  0
    2.2232   -2.2218   35.3867 H   0  0  0  0  0  0  0  0  0  0  0  0
   -0.6674   -6.3343   36.5205 H   0  0  0  0  0  0  0  0  0  0  0  0
   -1.6197   -7.9441   35.4553 H   0  0  0  0  0  0  0  0  0  0  0  0
   -2.1366   -9.1229   33.5869 H   0  0  0  0  0  0  0  0  0  0  0  0
   -0.4906   -7.0695   29.8446 H   0  0  0  0  0  0  0  0  0  0  0  0
    0.7447   -4.9710   29.3866 H   0  0  0  0  0  0  0  0  0  0  0  0
    1.3583   -3.4966   31.2594 H   0  0  0  0  0  0  0  0  0  0  0  0
    0.8254   -4.0693   33.5454 H   0  0  0  0  0  0  0  0  0  0  0  0
  1  2  2  0
  2  3  1  0
  3  4  1  0
  4  5  1  0
  5  6  1  0
  6  7  2  0
  7  8  1  0
  8  9  1  0
  4 10  1  0
 10 11  1  0
 11 12  1  0
 12 13  1  0
 13 14  1  0
 14 15  1  0
 15 16  2  0
 16 17  1  0
 17 18  1  0
 17 19  2  0
 19 20  1  0
  2 21  1  0
 21 22  1  0
 22 23  2  0
 23 24  1  0
 24 25  1  0
 25 26  2  0
 25 27  1  0
 27 28  2  0
 28 29  1  0
 29 30  2  0
 30 31  1  0
 31 32  2  0
 12  4  1  0
 20 15  1  0
 32 22  1  0
  9  5  2  0
 32 27  1  0
  3 33  1  0
  3 34  1  0
  6 35  1  0
  7 36  1  0
 10 37  1  0
 10 38  1  0
 11 39  1  0
 12 40  1  0
 13 41  1  0
 14 42  1  0
 14 43  1  0
 16 44  1  0
 19 45  1  0
 20 46  1  0
 21 47  1  0
 23 48  1  0
 24 49  1  0
 28 50  1  0
 29 51  1  0
 30 52  1  0
 31 53  1  0
M  END
>  <Energy>  (1084) 
10.291454018835454

>  <compound_id>  (1084) 
4510

>  <target_id>  (1084) 
1

>  <reference_id>  (1084) 
156

>  <inspiration_ids>  (1084) 
[159, 156]

>  <energy_score>  (1084) 
-48.73806204923709

>  <distance_score>  (1084) 
2.3015436450123987

>  <path>  (1084) 
/opt/xchem-fragalysis-2/maxwin/BulkDock/SCRATCH/505735/C4510-P156/C4510-P156.minimised.mol

>  <scratch_subdir>  (1084) 
/opt/xchem-fragalysis-2/maxwin/BulkDock/SCRATCH/505735/C4510-P156

>  <fragmenstein_runtime>  (1084) 
36.94335961341858

>  <fragmenstein_outcome>  (1084) 
too moved

>  <fragmenstein_mode>  (1084) 
expansion

>  <fragmenstein_error>  (1084) 


$$$$
C4511-P159
     RDKit          3D

 79 84  0  0  0  0  0  0  0  0999 V2000
   -1.6741   -2.2462   31.4257 C   0  0  0  0  0  0  0  0  0  0  0  0
   -0.7884   -1.9942   32.6274 C   0  0  0  0  0  0  0  0  0  0  0  0
   -0.7261   -2.7317   33.5410 O   0  0  0  0  0  0  0  0  0  0  0  0
   -0.0944   -0.6650   32.3891 N   0  0  0  0  0  0  0  0  0  0  0  0
    1.2280   -0.8565   31.6844 C   0  0  0  0  0  0  0  0  0  0  0  0
    2.3115   -1.4168   32.5876 C   0  0  0  0  0  0  0  0  0  0  0  0
    3.6688   -1.2698   31.9623 C   0  0  0  0  0  0  0  0  0  0  0  0
    4.6592   -0.7668   32.4629 O   0  0  0  0  0  0  0  0  0  0  0  0
    3.7379   -1.8260   30.7372 O   0  0  0  0  0  0  0  0  0  0  0  0
    2.0853   -0.5300   33.7664 C   0  0  0  0  0  0  0  0  0  0  0  0
    2.0998   -1.2460   35.1091 C   0  0  0  0  0  0  0  0  0  0  0  0
    3.3483   -1.5638   35.6652 C   0  0  0  0  0  0  0  0  0  0  0  0
    3.4438   -2.1116   36.9429 C   0  0  0  0  0  0  0  0  0  0  0  0
    2.2925   -2.3617   37.6895 C   0  0  0  0  0  0  0  0  0  0  0  0
    1.0250   -2.1188   37.1537 C   0  0  0  0  0  0  0  0  0  0  0  0
   -0.2612   -2.3392   37.9381 C   0  0  0  0  0  0  0  0  0  0  0  0
   -0.2457   -3.3779   39.0792 C   0  0  0  0  0  0  0  0  0  0  0  0
   -0.1722   -4.8215   38.5566 C   0  0  0  0  0  0  0  0  0  0  0  0
    0.2708   -5.7880   39.5782 N   0  0  0  0  0  0  0  0  0  0  0  0
    0.4968   -7.1284   38.9970 C   0  0  0  0  0  0  0  0  0  0  0  0
    2.0294   -6.8244   38.8653 C   0  0  0  0  0  0  0  0  0  0  0  0
    2.5494   -6.3775   37.4728 C   0  0  0  0  0  0  0  0  0  0  0  0
    1.8703   -7.2309   36.4245 C   0  0  0  0  0  0  0  0  0  0  0  0
    1.9220   -8.3918   36.5126 O   0  0  0  0  0  0  0  0  0  0  0  0
    1.1052   -6.3351   35.4216 N   0  0  0  0  0  0  0  0  0  0  0  0
    0.2257   -6.6623   34.4414 C   0  0  0  0  0  0  0  0  0  0  0  0
   -0.6793   -7.6185   34.6995 C   0  0  0  0  0  0  0  0  0  0  0  0
   -1.5175   -8.1267   33.7526 N   0  0  0  0  0  0  0  0  0  0  0  0
   -1.4205   -7.8216   32.4257 C   0  0  0  0  0  0  0  0  0  0  0  0
   -2.0656   -8.3986   31.5631 O   0  0  0  0  0  0  0  0  0  0  0  0
   -0.4586   -6.7555   32.0772 C   0  0  0  0  0  0  0  0  0  0  0  0
   -0.3136   -6.4285   30.7357 C   0  0  0  0  0  0  0  0  0  0  0  0
    0.5823   -5.4362   30.3767 C   0  0  0  0  0  0  0  0  0  0  0  0
    1.3586   -4.8127   31.3432 C   0  0  0  0  0  0  0  0  0  0  0  0
    1.2345   -5.1607   32.6876 C   0  0  0  0  0  0  0  0  0  0  0  0
    0.3161   -6.1345   33.0759 C   0  0  0  0  0  0  0  0  0  0  0  0
    2.9826   -7.9037   39.5104 C   0  0  0  0  0  0  0  0  0  0  0  0
    2.6536   -9.2403   39.8010 C   0  0  0  0  0  0  0  0  0  0  0  0
    3.8033   -9.7515   40.3424 C   0  0  0  0  0  0  0  0  0  0  0  0
    4.7612   -8.7921   40.3702 O   0  0  0  0  0  0  0  0  0  0  0  0
    4.2475   -7.6166   39.8428 N   0  0  0  0  0  0  0  0  0  0  0  0
    1.7145   -5.6832   39.8671 C   0  0  0  0  0  0  0  0  0  0  0  0
    0.9509   -1.5476   35.8647 C   0  0  0  0  0  0  0  0  0  0  0  0
    0.7979    0.1527   33.2900 C   0  0  0  0  0  0  0  0  0  0  0  0
   -1.9023   -1.3200   30.8909 H   0  0  0  0  0  0  0  0  0  0  0  0
   -2.6183   -2.6808   31.7662 H   0  0  0  0  0  0  0  0  0  0  0  0
   -1.1769   -2.9410   30.7457 H   0  0  0  0  0  0  0  0  0  0  0  0
    1.0404   -1.5914   30.8880 H   0  0  0  0  0  0  0  0  0  0  0  0
    1.5165    0.0523   31.1261 H   0  0  0  0  0  0  0  0  0  0  0  0
    2.1468   -2.4659   32.8329 H   0  0  0  0  0  0  0  0  0  0  0  0
    4.6689   -1.6817   30.4580 H   0  0  0  0  0  0  0  0  0  0  0  0
    2.8335    0.2708   33.8525 H   0  0  0  0  0  0  0  0  0  0  0  0
    4.2672   -1.3388   35.1250 H   0  0  0  0  0  0  0  0  0  0  0  0
    4.4223   -2.3092   37.3750 H   0  0  0  0  0  0  0  0  0  0  0  0
    2.4153   -2.7262   38.7040 H   0  0  0  0  0  0  0  0  0  0  0  0
   -1.0607   -2.6141   37.2375 H   0  0  0  0  0  0  0  0  0  0  0  0
   -0.5370   -1.3684   38.3699 H   0  0  0  0  0  0  0  0  0  0  0  0
   -1.1724   -3.2726   39.6586 H   0  0  0  0  0  0  0  0  0  0  0  0
    0.5657   -3.1521   39.7779 H   0  0  0  0  0  0  0  0  0  0  0  0
    0.4359   -4.8502   37.6551 H   0  0  0  0  0  0  0  0  0  0  0  0
   -1.1798   -5.1081   38.2321 H   0  0  0  0  0  0  0  0  0  0  0  0
    0.2330   -7.9204   39.7092 H   0  0  0  0  0  0  0  0  0  0  0  0
   -0.0647   -7.3422   38.0828 H   0  0  0  0  0  0  0  0  0  0  0  0
    2.3869   -5.3136   37.2997 H   0  0  0  0  0  0  0  0  0  0  0  0
    3.6321   -6.5224   37.3769 H   0  0  0  0  0  0  0  0  0  0  0  0
    1.3494   -5.3613   35.5812 H   0  0  0  0  0  0  0  0  0  0  0  0
   -0.7736   -8.0758   35.6811 H   0  0  0  0  0  0  0  0  0  0  0  0
   -2.1154   -8.9123   33.9920 H   0  0  0  0  0  0  0  0  0  0  0  0
   -0.8926   -6.9440   29.9764 H   0  0  0  0  0  0  0  0  0  0  0  0
    0.6933   -5.1373   29.3394 H   0  0  0  0  0  0  0  0  0  0  0  0
    2.0800   -4.0592   31.0386 H   0  0  0  0  0  0  0  0  0  0  0  0
    1.8694   -4.6728   33.4207 H   0  0  0  0  0  0  0  0  0  0  0  0
    1.7217   -9.7651   39.6522 H   0  0  0  0  0  0  0  0  0  0  0  0
    4.0900  -10.7152   40.7359 H   0  0  0  0  0  0  0  0  0  0  0  0
    2.2014   -4.7278   39.6577 H   0  0  0  0  0  0  0  0  0  0  0  0
    1.9377   -5.9190   40.9168 H   0  0  0  0  0  0  0  0  0  0  0  0
   -0.0383   -1.3226   35.4699 H   0  0  0  0  0  0  0  0  0  0  0  0
    0.9985    1.1277   32.8107 H   0  0  0  0  0  0  0  0  0  0  0  0
    0.1685    0.4202   34.1475 H   0  0  0  0  0  0  0  0  0  0  0  0
  1  2  1  0
  2  3  2  0
  2  4  1  0
  4  5  1  0
  5  6  1  0
  6  7  1  0
  7  8  2  0
  7  9  1  0
  6 10  1  0
 10 11  1  0
 11 12  2  0
 12 13  1  0
 13 14  2  0
 14 15  1  0
 15 16  1  0
 16 17  1  0
 17 18  1  0
 18 19  1  0
 19 20  1  0
 20 21  1  0
 21 22  1  0
 22 23  1  0
 23 24  2  0
 23 25  1  0
 25 26  1  0
 26 27  2  0
 27 28  1  0
 28 29  1  0
 29 30  2  0
 29 31  1  0
 31 32  2  0
 32 33  1  0
 33 34  2  0
 34 35  1  0
 35 36  2  0
 21 37  1  0
 37 38  1  0
 38 39  2  0
 39 40  1  0
 40 41  1  0
 21 42  1  0
 15 43  2  0
 10 44  1  0
 44  4  1  0
 43 11  1  0
 42 19  1  0
 36 26  1  0
 41 37  2  0
 36 31  1  0
  1 45  1  0
  1 46  1  0
  1 47  1  0
  5 48  1  0
  5 49  1  0
  6 50  1  0
  9 51  1  0
 10 52  1  0
 12 53  1  0
 13 54  1  0
 14 55  1  0
 16 56  1  0
 16 57  1  0
 17 58  1  0
 17 59  1  0
 18 60  1  0
 18 61  1  0
 20 62  1  0
 20 63  1  0
 22 64  1  0
 22 65  1  0
 25 66  1  0
 27 67  1  0
 28 68  1  0
 32 69  1  0
 33 70  1  0
 34 71  1  0
 35 72  1  0
 38 73  1  0
 39 74  1  0
 42 75  1  0
 42 76  1  0
 43 77  1  0
 44 78  1  0
 44 79  1  0
M  END
>  <Energy>  (1085) 
115.59001728110393

>  <compound_id>  (1085) 
4511

>  <target_id>  (1085) 
1

>  <reference_id>  (1085) 
159

>  <inspiration_ids>  (1085) 
[159, 157]

>  <energy_score>  (1085) 
-21.643744169181133

>  <distance_score>  (1085) 
2.163451324598255

>  <path>  (1085) 
/opt/xchem-fragalysis-2/maxwin/BulkDock/SCRATCH/505735/C4511-P159/C4511-P159.minimised.mol

>  <scratch_subdir>  (1085) 
/opt/xchem-fragalysis-2/maxwin/BulkDock/SCRATCH/505735/C4511-P159

>  <fragmenstein_runtime>  (1085) 
61.455971002578735

>  <fragmenstein_outcome>  (1085) 
too moved

>  <fragmenstein_mode>  (1085) 
expansion

>  <fragmenstein_error>  (1085) 


$$$$
C4511-P157
     RDKit          3D

 79 84  0  0  0  0  0  0  0  0999 V2000
    2.6038   -1.5301   37.0927 C   0  0  0  0  0  0  0  0  0  0  0  0
    3.6488   -2.4219   36.4578 C   0  0  0  0  0  0  0  0  0  0  0  0
    3.8387   -3.5297   36.8040 O   0  0  0  0  0  0  0  0  0  0  0  0
    4.3201   -1.6042   35.3668 N   0  0  0  0  0  0  0  0  0  0  0  0
    3.6022   -1.7604   34.0434 C   0  0  0  0  0  0  0  0  0  0  0  0
    3.8739   -3.0745   33.3322 C   0  0  0  0  0  0  0  0  0  0  0  0
    3.6403   -2.9494   31.8539 C   0  0  0  0  0  0  0  0  0  0  0  0
    3.1698   -1.9918   31.2641 O   0  0  0  0  0  0  0  0  0  0  0  0
    3.9870   -4.0597   31.1755 O   0  0  0  0  0  0  0  0  0  0  0  0
    5.3316   -3.2063   33.6377 C   0  0  0  0  0  0  0  0  0  0  0  0
    5.8444   -4.4725   34.3159 C   0  0  0  0  0  0  0  0  0  0  0  0
    7.2187   -4.5700   34.5999 C   0  0  0  0  0  0  0  0  0  0  0  0
    7.7558   -5.7014   35.2191 C   0  0  0  0  0  0  0  0  0  0  0  0
    6.9335   -6.7726   35.5567 C   0  0  0  0  0  0  0  0  0  0  0  0
    5.5686   -6.7230   35.2676 C   0  0  0  0  0  0  0  0  0  0  0  0
    4.6696   -7.8876   35.6062 C   0  0  0  0  0  0  0  0  0  0  0  0
    4.2627   -8.0017   37.0774 C   0  0  0  0  0  0  0  0  0  0  0  0
    3.5164   -6.7641   37.5797 C   0  0  0  0  0  0  0  0  0  0  0  0
    2.5619   -7.1118   38.6556 N   0  0  0  0  0  0  0  0  0  0  0  0
    1.2537   -7.4797   38.0801 C   0  0  0  0  0  0  0  0  0  0  0  0
    0.5874   -6.2618   38.7890 C   0  0  0  0  0  0  0  0  0  0  0  0
   -0.1176   -5.1817   37.9424 C   0  0  0  0  0  0  0  0  0  0  0  0
    0.2261   -5.1361   36.4508 C   0  0  0  0  0  0  0  0  0  0  0  0
    1.0447   -4.4481   35.9792 O   0  0  0  0  0  0  0  0  0  0  0  0
   -0.7593   -6.1401   35.7783 N   0  0  0  0  0  0  0  0  0  0  0  0
   -0.8636   -6.5462   34.4722 C   0  0  0  0  0  0  0  0  0  0  0  0
   -1.5916   -7.6606   34.3119 C   0  0  0  0  0  0  0  0  0  0  0  0
   -1.7978   -8.2697   33.1160 N   0  0  0  0  0  0  0  0  0  0  0  0
   -1.2164   -7.9031   31.9519 C   0  0  0  0  0  0  0  0  0  0  0  0
   -1.3708   -8.5368   30.9166 O   0  0  0  0  0  0  0  0  0  0  0  0
   -0.4495   -6.6486   32.0100 C   0  0  0  0  0  0  0  0  0  0  0  0
   -0.0234   -6.1517   30.7802 C   0  0  0  0  0  0  0  0  0  0  0  0
    0.4521   -4.8607   30.7113 C   0  0  0  0  0  0  0  0  0  0  0  0
    0.5006   -4.0927   31.8674 C   0  0  0  0  0  0  0  0  0  0  0  0
    0.1329   -4.6218   33.1120 C   0  0  0  0  0  0  0  0  0  0  0  0
   -0.3319   -5.9283   33.2276 C   0  0  0  0  0  0  0  0  0  0  0  0
   -0.2332   -6.6272   40.1013 C   0  0  0  0  0  0  0  0  0  0  0  0
   -0.1274   -7.8257   40.8407 C   0  0  0  0  0  0  0  0  0  0  0  0
   -0.9767   -7.6380   41.8988 C   0  0  0  0  0  0  0  0  0  0  0  0
   -1.5538   -6.4148   41.8074 O   0  0  0  0  0  0  0  0  0  0  0  0
   -1.0783   -5.7667   40.6799 N   0  0  0  0  0  0  0  0  0  0  0  0
    2.0188   -5.8502   39.1887 C   0  0  0  0  0  0  0  0  0  0  0  0
    5.0389   -5.5731   34.6486 C   0  0  0  0  0  0  0  0  0  0  0  0
    5.4870   -1.9295   34.4793 C   0  0  0  0  0  0  0  0  0  0  0  0
    2.8163   -0.4717   36.9175 H   0  0  0  0  0  0  0  0  0  0  0  0
    1.6215   -1.7738   36.6807 H   0  0  0  0  0  0  0  0  0  0  0  0
    2.5999   -1.7005   38.1731 H   0  0  0  0  0  0  0  0  0  0  0  0
    2.5263   -1.7268   34.2712 H   0  0  0  0  0  0  0  0  0  0  0  0
    3.7556   -0.8551   33.4295 H   0  0  0  0  0  0  0  0  0  0  0  0
    3.2143   -3.8468   33.7281 H   0  0  0  0  0  0  0  0  0  0  0  0
    3.7438   -3.8645   30.2460 H   0  0  0  0  0  0  0  0  0  0  0  0
    5.9466   -3.0946   32.7331 H   0  0  0  0  0  0  0  0  0  0  0  0
    7.8918   -3.7536   34.3457 H   0  0  0  0  0  0  0  0  0  0  0  0
    8.8190   -5.7436   35.4410 H   0  0  0  0  0  0  0  0  0  0  0  0
    7.3639   -7.6448   36.0421 H   0  0  0  0  0  0  0  0  0  0  0  0
    5.1722   -8.8146   35.3011 H   0  0  0  0  0  0  0  0  0  0  0  0
    3.7594   -7.8387   34.9947 H   0  0  0  0  0  0  0  0  0  0  0  0
    5.1435   -8.1771   37.7076 H   0  0  0  0  0  0  0  0  0  0  0  0
    3.6321   -8.8909   37.1771 H   0  0  0  0  0  0  0  0  0  0  0  0
    3.0136   -6.2460   36.7544 H   0  0  0  0  0  0  0  0  0  0  0  0
    4.2691   -6.0698   37.9767 H   0  0  0  0  0  0  0  0  0  0  0  0
    1.2042   -7.4968   36.9861 H   0  0  0  0  0  0  0  0  0  0  0  0
    0.9046   -8.4671   38.3972 H   0  0  0  0  0  0  0  0  0  0  0  0
   -1.2071   -5.2792   38.0299 H   0  0  0  0  0  0  0  0  0  0  0  0
    0.0963   -4.1847   38.3518 H   0  0  0  0  0  0  0  0  0  0  0  0
   -1.3934   -6.5119   36.4762 H   0  0  0  0  0  0  0  0  0  0  0  0
   -2.0413   -8.1847   35.1507 H   0  0  0  0  0  0  0  0  0  0  0  0
   -2.3581   -9.1127   33.0673 H   0  0  0  0  0  0  0  0  0  0  0  0
   -0.1377   -6.7379   29.8749 H   0  0  0  0  0  0  0  0  0  0  0  0
    0.7260   -4.4264   29.7530 H   0  0  0  0  0  0  0  0  0  0  0  0
    0.7949   -3.0466   31.8031 H   0  0  0  0  0  0  0  0  0  0  0  0
    0.1408   -3.9520   33.9650 H   0  0  0  0  0  0  0  0  0  0  0  0
    0.4873   -8.6926   40.6481 H   0  0  0  0  0  0  0  0  0  0  0  0
   -1.2655   -8.2290   42.7548 H   0  0  0  0  0  0  0  0  0  0  0  0
    2.2013   -5.7265   40.2636 H   0  0  0  0  0  0  0  0  0  0  0  0
    2.3765   -4.9269   38.7138 H   0  0  0  0  0  0  0  0  0  0  0  0
    3.9704   -5.5577   34.4545 H   0  0  0  0  0  0  0  0  0  0  0  0
    5.7639   -1.0490   33.8731 H   0  0  0  0  0  0  0  0  0  0  0  0
    6.3261   -2.0422   35.1782 H   0  0  0  0  0  0  0  0  0  0  0  0
  1  2  1  0
  2  3  2  0
  2  4  1  0
  4  5  1  0
  5  6  1  0
  6  7  1  0
  7  8  2  0
  7  9  1  0
  6 10  1  0
 10 11  1  0
 11 12  2  0
 12 13  1  0
 13 14  2  0
 14 15  1  0
 15 16  1  0
 16 17  1  0
 17 18  1  0
 18 19  1  0
 19 20  1  0
 20 21  1  0
 21 22  1  0
 22 23  1  0
 23 24  2  0
 23 25  1  0
 25 26  1  0
 26 27  2  0
 27 28  1  0
 28 29  1  0
 29 30  2  0
 29 31  1  0
 31 32  2  0
 32 33  1  0
 33 34  2  0
 34 35  1  0
 35 36  2  0
 21 37  1  0
 37 38  1  0
 38 39  2  0
 39 40  1  0
 40 41  1  0
 21 42  1  0
 15 43  2  0
 10 44  1  0
 44  4  1  0
 43 11  1  0
 42 19  1  0
 36 26  1  0
 41 37  2  0
 36 31  1  0
  1 45  1  0
  1 46  1  0
  1 47  1  0
  5 48  1  0
  5 49  1  0
  6 50  1  0
  9 51  1  0
 10 52  1  0
 12 53  1  0
 13 54  1  0
 14 55  1  0
 16 56  1  0
 16 57  1  0
 17 58  1  0
 17 59  1  0
 18 60  1  0
 18 61  1  0
 20 62  1  0
 20 63  1  0
 22 64  1  0
 22 65  1  0
 25 66  1  0
 27 67  1  0
 28 68  1  0
 32 69  1  0
 33 70  1  0
 34 71  1  0
 35 72  1  0
 38 73  1  0
 39 74  1  0
 42 75  1  0
 42 76  1  0
 43 77  1  0
 44 78  1  0
 44 79  1  0
M  END
>  <Energy>  (1086) 
118.58326899552708

>  <compound_id>  (1086) 
4511

>  <target_id>  (1086) 
1

>  <reference_id>  (1086) 
157

>  <inspiration_ids>  (1086) 
[159, 157]

>  <energy_score>  (1086) 
-18.65049245475589

>  <distance_score>  (1086) 
2.239029040176598

>  <path>  (1086) 
/opt/xchem-fragalysis-2/maxwin/BulkDock/SCRATCH/505735/C4511-P157/C4511-P157.minimised.mol

>  <scratch_subdir>  (1086) 
/opt/xchem-fragalysis-2/maxwin/BulkDock/SCRATCH/505735/C4511-P157

>  <fragmenstein_runtime>  (1086) 
63.18344807624817

>  <fragmenstein_outcome>  (1086) 
too moved

>  <fragmenstein_mode>  (1086) 
expansion

>  <fragmenstein_error>  (1086) 


$$$$
C4513-P159
     RDKit          3D

 53 57  0  0  0  0  0  0  0  0999 V2000
    1.2168   -7.5251   35.2035 O   0  0  0  0  0  0  0  0  0  0  0  0
    1.6912   -6.4465   35.4222 C   0  0  0  0  0  0  0  0  0  0  0  0
    2.1586   -6.0426   36.8214 C   0  0  0  0  0  0  0  0  0  0  0  0
    2.0359   -7.1256   37.9076 C   0  0  0  0  0  0  0  0  0  0  0  0
    3.1824   -8.2031   37.8457 C   0  0  0  0  0  0  0  0  0  0  0  0
    3.3750   -9.2491   38.7746 C   0  0  0  0  0  0  0  0  0  0  0  0
    4.5067   -9.8815   38.3309 C   0  0  0  0  0  0  0  0  0  0  0  0
    4.9622   -9.2672   37.2115 O   0  0  0  0  0  0  0  0  0  0  0  0
    4.1317   -8.2028   36.9012 N   0  0  0  0  0  0  0  0  0  0  0  0
    1.8646   -6.5111   39.3343 C   0  0  0  0  0  0  0  0  0  0  0  0
    0.4014   -6.6064   39.1554 N   0  0  0  0  0  0  0  0  0  0  0  0
    0.6106   -7.6936   38.1736 C   0  0  0  0  0  0  0  0  0  0  0  0
    1.8521   -5.2919   34.5606 N   0  0  0  0  0  0  0  0  0  0  0  0
    1.4287   -5.0627   33.2753 C   0  0  0  0  0  0  0  0  0  0  0  0
    0.1477   -5.4142   32.9620 C   0  0  0  0  0  0  0  0  0  0  0  0
   -0.1276   -5.9229   31.6959 N   0  0  0  0  0  0  0  0  0  0  0  0
   -0.4507   -7.2301   31.3848 C   0  0  0  0  0  0  0  0  0  0  0  0
   -1.1496   -8.1027   32.0910 C   0  0  0  0  0  0  0  0  0  0  0  0
   -1.5336   -9.3856   31.5685 C   0  0  0  0  0  0  0  0  0  0  0  0
   -1.1465   -9.9842   30.3978 C   0  0  0  0  0  0  0  0  0  0  0  0
   -2.4961  -11.8781   29.2958 I   0  0  0  0  0  0  0  0  0  0  0  0
   -0.2489   -9.1176   29.4990 C   0  0  0  0  0  0  0  0  0  0  0  0
    0.0919   -7.7359   30.0991 C   0  0  0  0  0  0  0  0  0  0  0  0
    0.8817   -6.9712   29.5264 O   0  0  0  0  0  0  0  0  0  0  0  0
   -0.7723   -4.4653   33.4013 N   0  0  0  0  0  0  0  0  0  0  0  0
   -0.5541   -3.1074   33.2319 C   0  0  0  0  0  0  0  0  0  0  0  0
   -1.4055   -2.2548   33.4435 O   0  0  0  0  0  0  0  0  0  0  0  0
    0.7930   -2.7449   32.7204 C   0  0  0  0  0  0  0  0  0  0  0  0
    1.0563   -1.4819   32.2031 C   0  0  0  0  0  0  0  0  0  0  0  0
    2.3360   -1.1991   31.7273 C   0  0  0  0  0  0  0  0  0  0  0  0
    3.3475   -2.1629   31.7859 C   0  0  0  0  0  0  0  0  0  0  0  0
    3.0816   -3.4305   32.3046 C   0  0  0  0  0  0  0  0  0  0  0  0
    1.7944   -3.7290   32.7552 C   0  0  0  0  0  0  0  0  0  0  0  0
    1.5455   -5.1740   37.1019 H   0  0  0  0  0  0  0  0  0  0  0  0
    3.1939   -5.6827   36.7630 H   0  0  0  0  0  0  0  0  0  0  0  0
    2.7786   -9.5146   39.6356 H   0  0  0  0  0  0  0  0  0  0  0  0
    5.0818  -10.7314   38.6670 H   0  0  0  0  0  0  0  0  0  0  0  0
    2.2370   -5.4905   39.4696 H   0  0  0  0  0  0  0  0  0  0  0  0
    2.2322   -7.1150   40.1725 H   0  0  0  0  0  0  0  0  0  0  0  0
   -0.1242   -6.8721   39.9885 H   0  0  0  0  0  0  0  0  0  0  0  0
   -0.0953   -7.6742   37.3398 H   0  0  0  0  0  0  0  0  0  0  0  0
    0.5714   -8.6904   38.6269 H   0  0  0  0  0  0  0  0  0  0  0  0
    2.3729   -4.5766   35.0583 H   0  0  0  0  0  0  0  0  0  0  0  0
    0.5851   -5.6198   31.0176 H   0  0  0  0  0  0  0  0  0  0  0  0
   -1.5479   -7.8201   33.0639 H   0  0  0  0  0  0  0  0  0  0  0  0
   -2.3022   -9.6967   32.2255 H   0  0  0  0  0  0  0  0  0  0  0  0
    0.6969   -9.5619   29.2106 H   0  0  0  0  0  0  0  0  0  0  0  0
   -0.6947   -8.9290   28.5532 H   0  0  0  0  0  0  0  0  0  0  0  0
   -1.7424   -4.7111   33.5736 H   0  0  0  0  0  0  0  0  0  0  0  0
    0.2733   -0.7278   32.1623 H   0  0  0  0  0  0  0  0  0  0  0  0
    2.5491   -0.2153   31.3135 H   0  0  0  0  0  0  0  0  0  0  0  0
    4.3427   -1.9222   31.4184 H   0  0  0  0  0  0  0  0  0  0  0  0
    3.8716   -4.1757   32.3374 H   0  0  0  0  0  0  0  0  0  0  0  0
  1  2  2  0
  2  3  1  0
  3  4  1  0
  4  5  1  0
  5  6  1  0
  6  7  2  0
  7  8  1  0
  8  9  1  0
  4 10  1  0
 10 11  1  0
 11 12  1  0
  2 13  1  0
 13 14  1  0
 14 15  2  0
 15 16  1  0
 16 17  1  0
 17 18  2  0
 18 19  1  0
 19 20  2  0
 20 21  1  0
 20 22  1  0
 22 23  1  0
 23 24  2  0
 15 25  1  0
 25 26  1  0
 26 27  2  0
 26 28  1  0
 28 29  2  0
 29 30  1  0
 30 31  2  0
 31 32  1  0
 32 33  2  0
 12  4  1  0
 33 14  1  0
  9  5  2  0
 23 17  1  0
 33 28  1  0
  3 34  1  0
  3 35  1  0
  6 36  1  0
  7 37  1  0
 10 38  1  0
 10 39  1  0
 11 40  1  0
 12 41  1  0
 12 42  1  0
 13 43  1  0
 16 44  1  0
 18 45  1  0
 19 46  1  0
 22 47  1  0
 22 48  1  0
 25 49  1  0
 29 50  1  0
 30 51  1  0
 31 52  1  0
 32 53  1  0
M  END
>  <Energy>  (1087) 
157.9845722389029

>  <compound_id>  (1087) 
4513

>  <target_id>  (1087) 
1

>  <reference_id>  (1087) 
159

>  <inspiration_ids>  (1087) 
[159, 162]

>  <energy_score>  (1087) 
6.647419370049761

>  <distance_score>  (1087) 
2.814750148436653

>  <path>  (1087) 
/opt/xchem-fragalysis-2/maxwin/BulkDock/SCRATCH/505735/C4513-P159/C4513-P159.minimised.mol

>  <scratch_subdir>  (1087) 
/opt/xchem-fragalysis-2/maxwin/BulkDock/SCRATCH/505735/C4513-P159

>  <fragmenstein_runtime>  (1087) 
257.2195723056793

>  <fragmenstein_outcome>  (1087) 
too moved

>  <fragmenstein_mode>  (1087) 
expansion

>  <fragmenstein_error>  (1087) 


$$$$
C4513-P162
     RDKit          3D

 53 57  0  0  0  0  0  0  0  0999 V2000
    1.1243   -7.0009   34.8766 O   0  0  0  0  0  0  0  0  0  0  0  0
    0.7960   -5.9397   35.2504 C   0  0  0  0  0  0  0  0  0  0  0  0
    0.7922   -5.4885   36.7162 C   0  0  0  0  0  0  0  0  0  0  0  0
    1.1104   -6.5819   37.7464 C   0  0  0  0  0  0  0  0  0  0  0  0
    2.6075   -7.0693   37.7508 C   0  0  0  0  0  0  0  0  0  0  0  0
    3.0731   -8.2934   38.2796 C   0  0  0  0  0  0  0  0  0  0  0  0
    4.4278   -8.2407   38.0805 C   0  0  0  0  0  0  0  0  0  0  0  0
    4.7581   -7.0654   37.4907 O   0  0  0  0  0  0  0  0  0  0  0  0
    3.6116   -6.3145   37.2903 N   0  0  0  0  0  0  0  0  0  0  0  0
    0.5973   -6.2795   39.1828 C   0  0  0  0  0  0  0  0  0  0  0  0
   -0.0337   -7.6080   39.2312 N   0  0  0  0  0  0  0  0  0  0  0  0
    0.0688   -7.7060   37.7573 C   0  0  0  0  0  0  0  0  0  0  0  0
    0.3154   -4.6842   34.4451 N   0  0  0  0  0  0  0  0  0  0  0  0
    0.0657   -4.5261   33.0952 C   0  0  0  0  0  0  0  0  0  0  0  0
    0.2706   -5.4256   32.0974 C   0  0  0  0  0  0  0  0  0  0  0  0
    0.5066   -6.7684   32.2732 N   0  0  0  0  0  0  0  0  0  0  0  0
   -0.1759   -7.7057   31.5123 C   0  0  0  0  0  0  0  0  0  0  0  0
   -1.0793   -8.4985   32.0467 C   0  0  0  0  0  0  0  0  0  0  0  0
   -1.5740   -9.6443   31.3743 C   0  0  0  0  0  0  0  0  0  0  0  0
   -1.2394  -10.2276   30.1934 C   0  0  0  0  0  0  0  0  0  0  0  0
   -2.7258  -12.0783   29.1337 I   0  0  0  0  0  0  0  0  0  0  0  0
   -0.4609   -9.2173   29.3172 C   0  0  0  0  0  0  0  0  0  0  0  0
    0.1665   -8.0070   30.0820 C   0  0  0  0  0  0  0  0  0  0  0  0
    0.9295   -7.2416   29.4787 O   0  0  0  0  0  0  0  0  0  0  0  0
    0.2619   -4.9916   30.7917 N   0  0  0  0  0  0  0  0  0  0  0  0
    0.0067   -3.7434   30.3492 C   0  0  0  0  0  0  0  0  0  0  0  0
    0.2722   -3.3590   29.2209 O   0  0  0  0  0  0  0  0  0  0  0  0
   -0.6849   -2.9272   31.3286 C   0  0  0  0  0  0  0  0  0  0  0  0
   -1.5496   -1.9668   30.8402 C   0  0  0  0  0  0  0  0  0  0  0  0
   -2.3619   -1.2970   31.7358 C   0  0  0  0  0  0  0  0  0  0  0  0
   -2.2699   -1.5365   33.1026 C   0  0  0  0  0  0  0  0  0  0  0  0
   -1.3989   -2.5159   33.5775 C   0  0  0  0  0  0  0  0  0  0  0  0
   -0.6120   -3.2651   32.6873 C   0  0  0  0  0  0  0  0  0  0  0  0
   -0.2109   -5.0867   36.9169 H   0  0  0  0  0  0  0  0  0  0  0  0
    1.4947   -4.6528   36.8232 H   0  0  0  0  0  0  0  0  0  0  0  0
    2.5140   -9.1013   38.7249 H   0  0  0  0  0  0  0  0  0  0  0  0
    5.2519   -8.9070   38.2866 H   0  0  0  0  0  0  0  0  0  0  0  0
   -0.1293   -5.4608   39.2542 H   0  0  0  0  0  0  0  0  0  0  0  0
    1.3590   -6.1124   39.9520 H   0  0  0  0  0  0  0  0  0  0  0  0
    0.5118   -8.3210   39.7153 H   0  0  0  0  0  0  0  0  0  0  0  0
   -0.8557   -7.4464   37.2307 H   0  0  0  0  0  0  0  0  0  0  0  0
    0.4018   -8.6706   37.3788 H   0  0  0  0  0  0  0  0  0  0  0  0
    0.1887   -3.9041   35.0775 H   0  0  0  0  0  0  0  0  0  0  0  0
    0.4747   -6.9993   33.2700 H   0  0  0  0  0  0  0  0  0  0  0  0
   -1.3763   -8.3678   33.0877 H   0  0  0  0  0  0  0  0  0  0  0  0
   -2.2997   -9.9497   32.0453 H   0  0  0  0  0  0  0  0  0  0  0  0
    0.3186   -9.6753   28.7191 H   0  0  0  0  0  0  0  0  0  0  0  0
   -1.1235   -8.6869   28.6613 H   0  0  0  0  0  0  0  0  0  0  0  0
    0.6501   -5.6204   30.0904 H   0  0  0  0  0  0  0  0  0  0  0  0
   -1.6290   -1.7708   29.7715 H   0  0  0  0  0  0  0  0  0  0  0  0
   -3.0688   -0.5562   31.3654 H   0  0  0  0  0  0  0  0  0  0  0  0
   -2.9131   -0.9969   33.7935 H   0  0  0  0  0  0  0  0  0  0  0  0
   -1.4472   -2.7457   34.6376 H   0  0  0  0  0  0  0  0  0  0  0  0
  1  2  2  0
  2  3  1  0
  3  4  1  0
  4  5  1  0
  5  6  1  0
  6  7  2  0
  7  8  1  0
  8  9  1  0
  4 10  1  0
 10 11  1  0
 11 12  1  0
  2 13  1  0
 13 14  1  0
 14 15  2  0
 15 16  1  0
 16 17  1  0
 17 18  2  0
 18 19  1  0
 19 20  2  0
 20 21  1  0
 20 22  1  0
 22 23  1  0
 23 24  2  0
 15 25  1  0
 25 26  1  0
 26 27  2  0
 26 28  1  0
 28 29  2  0
 29 30  1  0
 30 31  2  0
 31 32  1  0
 32 33  2  0
 12  4  1  0
 33 14  1  0
  9  5  2  0
 23 17  1  0
 33 28  1  0
  3 34  1  0
  3 35  1  0
  6 36  1  0
  7 37  1  0
 10 38  1  0
 10 39  1  0
 11 40  1  0
 12 41  1  0
 12 42  1  0
 13 43  1  0
 16 44  1  0
 18 45  1  0
 19 46  1  0
 22 47  1  0
 22 48  1  0
 25 49  1  0
 29 50  1  0
 30 51  1  0
 31 52  1  0
 32 53  1  0
M  END
>  <Energy>  (1088) 
129.22200686416929

>  <compound_id>  (1088) 
4513

>  <target_id>  (1088) 
1

>  <reference_id>  (1088) 
162

>  <inspiration_ids>  (1088) 
[159, 162]

>  <energy_score>  (1088) 
2.447365740416217

>  <distance_score>  (1088) 
2.482453710837661

>  <path>  (1088) 
/opt/xchem-fragalysis-2/maxwin/BulkDock/SCRATCH/505735/C4513-P162/C4513-P162.minimised.mol

>  <scratch_subdir>  (1088) 
/opt/xchem-fragalysis-2/maxwin/BulkDock/SCRATCH/505735/C4513-P162

>  <fragmenstein_runtime>  (1088) 
217.6849925518036

>  <fragmenstein_outcome>  (1088) 
too moved

>  <fragmenstein_mode>  (1088) 
expansion

>  <fragmenstein_error>  (1088) 


$$$$
C4515-P159
     RDKit          3D

 68 74  0  0  0  0  0  0  0  0999 V2000
   -4.6852  -11.9350   40.7836 C   0  0  0  0  0  0  0  0  0  0  0  0
   -5.5786  -12.6409   39.8179 N   0  0  0  0  0  0  0  0  0  0  0  0
   -6.8185  -13.1374   40.2462 C   0  0  0  0  0  0  0  0  0  0  0  0
   -7.4190  -13.6365   39.1445 C   0  0  0  0  0  0  0  0  0  0  0  0
   -6.7560  -13.2325   38.0047 N   0  0  0  0  0  0  0  0  0  0  0  0
   -5.7284  -12.3559   38.1804 C   0  0  0  0  0  0  0  0  0  0  0  0
   -5.0521  -10.7235   36.9301 C   0  0  0  0  0  0  0  0  0  0  0  0
   -5.4514  -10.5051   35.6554 N   0  0  0  0  0  0  0  0  0  0  0  0
   -4.5222   -9.6063   35.0489 O   0  0  0  0  0  0  0  0  0  0  0  0
   -3.4439   -9.4556   35.8462 C   0  0  0  0  0  0  0  0  0  0  0  0
   -1.9739   -8.6148   35.5182 C   0  0  0  0  0  0  0  0  0  0  0  0
   -1.6135   -8.2835   34.0718 C   0  0  0  0  0  0  0  0  0  0  0  0
   -0.2578   -7.7953   34.6695 C   0  0  0  0  0  0  0  0  0  0  0  0
   -1.0855   -7.3189   35.9027 C   0  0  0  0  0  0  0  0  0  0  0  0
   -1.2117   -5.7975   35.9097 C   0  0  0  0  0  0  0  0  0  0  0  0
   -0.2691   -5.1085   34.9892 N   0  0  0  0  0  0  0  0  0  0  0  0
    0.9213   -4.6424   35.5228 C   0  0  0  0  0  0  0  0  0  0  0  0
    1.9093   -4.1016   34.7902 C   0  0  0  0  0  0  0  0  0  0  0  0
    3.1095   -3.7551   35.3485 N   0  0  0  0  0  0  0  0  0  0  0  0
    3.6037   -3.8980   36.7024 C   0  0  0  0  0  0  0  0  0  0  0  0
    3.0591   -4.2838   37.6973 O   0  0  0  0  0  0  0  0  0  0  0  0
    5.0878   -3.5688   36.7305 C   0  0  0  0  0  0  0  0  0  0  0  0
    5.9436   -4.8444   36.7160 C   0  0  0  0  0  0  0  0  0  0  0  0
    6.2886   -5.3404   38.1620 C   0  0  0  0  0  0  0  0  0  0  0  0
    5.4479   -6.1334   38.9667 C   0  0  0  0  0  0  0  0  0  0  0  0
    6.1549   -6.2768   40.1319 C   0  0  0  0  0  0  0  0  0  0  0  0
    7.3339   -5.6122   40.0364 O   0  0  0  0  0  0  0  0  0  0  0  0
    7.4191   -5.0065   38.7916 N   0  0  0  0  0  0  0  0  0  0  0  0
    5.5499   -6.0007   35.7394 C   0  0  0  0  0  0  0  0  0  0  0  0
    6.3872   -5.3691   34.6941 N   0  0  0  0  0  0  0  0  0  0  0  0
    7.1834   -4.7341   35.7775 C   0  0  0  0  0  0  0  0  0  0  0  0
    1.7242   -3.9770   33.3237 C   0  0  0  0  0  0  0  0  0  0  0  0
    2.6962   -3.4609   32.4473 C   0  0  0  0  0  0  0  0  0  0  0  0
    2.4856   -3.4213   31.0614 C   0  0  0  0  0  0  0  0  0  0  0  0
    1.2990   -3.8911   30.5161 C   0  0  0  0  0  0  0  0  0  0  0  0
    0.3219   -4.3959   31.3610 C   0  0  0  0  0  0  0  0  0  0  0  0
    0.5317   -4.4332   32.7530 C   0  0  0  0  0  0  0  0  0  0  0  0
   -0.5143   -5.0353   33.6050 C   0  0  0  0  0  0  0  0  0  0  0  0
   -1.4619   -5.5359   33.0062 O   0  0  0  0  0  0  0  0  0  0  0  0
   -3.5978  -10.3378   36.8121 N   0  0  0  0  0  0  0  0  0  0  0  0
   -4.8272  -10.8610   40.8029 H   0  0  0  0  0  0  0  0  0  0  0  0
   -3.6489  -12.2062   40.5812 H   0  0  0  0  0  0  0  0  0  0  0  0
   -4.9616  -12.2291   41.8025 H   0  0  0  0  0  0  0  0  0  0  0  0
   -7.0957  -13.1579   41.2920 H   0  0  0  0  0  0  0  0  0  0  0  0
   -8.3301  -14.2151   39.0655 H   0  0  0  0  0  0  0  0  0  0  0  0
   -1.3062   -9.2974   36.0352 H   0  0  0  0  0  0  0  0  0  0  0  0
   -1.5327   -9.0446   33.3050 H   0  0  0  0  0  0  0  0  0  0  0  0
   -2.2747   -7.5283   33.6521 H   0  0  0  0  0  0  0  0  0  0  0  0
    0.4837   -8.4958   35.0564 H   0  0  0  0  0  0  0  0  0  0  0  0
    0.3370   -7.1685   34.0127 H   0  0  0  0  0  0  0  0  0  0  0  0
   -0.5296   -7.5237   36.8352 H   0  0  0  0  0  0  0  0  0  0  0  0
   -1.0679   -5.4051   36.9246 H   0  0  0  0  0  0  0  0  0  0  0  0
   -2.2060   -5.5529   35.6530 H   0  0  0  0  0  0  0  0  0  0  0  0
    1.0234   -4.7732   36.5964 H   0  0  0  0  0  0  0  0  0  0  0  0
    3.8219   -3.3214   34.7818 H   0  0  0  0  0  0  0  0  0  0  0  0
    5.2835   -2.9673   37.6277 H   0  0  0  0  0  0  0  0  0  0  0  0
    5.3477   -2.9077   35.8952 H   0  0  0  0  0  0  0  0  0  0  0  0
    4.4676   -6.5292   38.7464 H   0  0  0  0  0  0  0  0  0  0  0  0
    5.9755   -6.7786   41.0712 H   0  0  0  0  0  0  0  0  0  0  0  0
    4.4960   -6.1112   35.4722 H   0  0  0  0  0  0  0  0  0  0  0  0
    5.9158   -6.9963   36.0246 H   0  0  0  0  0  0  0  0  0  0  0  0
    5.9019   -4.7086   34.0922 H   0  0  0  0  0  0  0  0  0  0  0  0
    7.5379   -3.7243   35.5468 H   0  0  0  0  0  0  0  0  0  0  0  0
    8.0548   -5.3369   36.0641 H   0  0  0  0  0  0  0  0  0  0  0  0
    3.6419   -3.0686   32.8058 H   0  0  0  0  0  0  0  0  0  0  0  0
    3.2515   -3.0062   30.4090 H   0  0  0  0  0  0  0  0  0  0  0  0
    1.1246   -3.8467   29.4436 H   0  0  0  0  0  0  0  0  0  0  0  0
   -0.6081   -4.7570   30.9306 H   0  0  0  0  0  0  0  0  0  0  0  0
  1  2  1  0
  2  3  1  0
  3  4  2  0
  4  5  1  0
  5  6  2  0
  6  7  1  0
  7  8  2  0
  8  9  1  0
  9 10  1  0
 10 11  1  0
 11 12  1  0
 12 13  1  0
 13 14  1  0
 14 15  1  0
 15 16  1  0
 16 17  1  0
 17 18  2  0
 18 19  1  0
 19 20  1  0
 20 21  2  0
 20 22  1  0
 22 23  1  0
 23 24  1  0
 24 25  1  0
 25 26  2  0
 26 27  1  0
 27 28  1  0
 23 29  1  0
 29 30  1  0
 30 31  1  0
 18 32  1  0
 32 33  2  0
 33 34  1  0
 34 35  2  0
 35 36  1  0
 36 37  2  0
 37 38  1  0
 38 39  2  0
 10 40  2  0
  6  2  1  0
 40  7  1  0
 14 11  1  0
 38 16  1  0
 31 23  1  0
 37 32  1  0
 28 24  2  0
  1 41  1  0
  1 42  1  0
  1 43  1  0
  3 44  1  0
  4 45  1  0
 11 46  1  0
 12 47  1  0
 12 48  1  0
 13 49  1  0
 13 50  1  0
 14 51  1  0
 15 52  1  0
 15 53  1  0
 17 54  1  0
 19 55  1  0
 22 56  1  0
 22 57  1  0
 25 58  1  0
 26 59  1  0
 29 60  1  0
 29 61  1  0
 30 62  1  0
 31 63  1  0
 31 64  1  0
 33 65  1  0
 34 66  1  0
 35 67  1  0
 36 68  1  0
M  END
>  <Energy>  (1089) 
297.10119355403867

>  <compound_id>  (1089) 
4515

>  <target_id>  (1089) 
1

>  <reference_id>  (1089) 
159

>  <inspiration_ids>  (1089) 
[159, 165]

>  <energy_score>  (1089) 
118.94348351084733

>  <distance_score>  (1089) 
3.308690341391415

>  <path>  (1089) 
/opt/xchem-fragalysis-2/maxwin/BulkDock/SCRATCH/505735/C4515-P159/C4515-P159.minimised.mol

>  <scratch_subdir>  (1089) 
/opt/xchem-fragalysis-2/maxwin/BulkDock/SCRATCH/505735/C4515-P159

>  <fragmenstein_runtime>  (1089) 
21.974278211593628

>  <fragmenstein_outcome>  (1089) 
too moved

>  <fragmenstein_mode>  (1089) 
expansion

>  <fragmenstein_error>  (1089) 


$$$$
C4515-P165
     RDKit          3D

 68 74  0  0  0  0  0  0  0  0999 V2000
   -3.7977  -11.4191   41.1109 C   0  0  0  0  0  0  0  0  0  0  0  0
   -4.5271  -12.1429   40.0803 N   0  0  0  0  0  0  0  0  0  0  0  0
   -5.5645  -12.9949   40.5234 C   0  0  0  0  0  0  0  0  0  0  0  0
   -6.2922  -13.3775   39.4484 C   0  0  0  0  0  0  0  0  0  0  0  0
   -5.8654  -12.7372   38.2934 N   0  0  0  0  0  0  0  0  0  0  0  0
   -4.8211  -11.8619   38.4405 C   0  0  0  0  0  0  0  0  0  0  0  0
   -4.3705  -10.4588   36.9412 C   0  0  0  0  0  0  0  0  0  0  0  0
   -5.1071  -10.3823   35.8233 N   0  0  0  0  0  0  0  0  0  0  0  0
   -4.3986   -9.5853   34.9511 O   0  0  0  0  0  0  0  0  0  0  0  0
   -3.2449   -9.2003   35.5340 C   0  0  0  0  0  0  0  0  0  0  0  0
   -2.3200   -8.0618   34.8652 C   0  0  0  0  0  0  0  0  0  0  0  0
   -2.0183   -8.2298   33.3159 C   0  0  0  0  0  0  0  0  0  0  0  0
   -0.8313   -7.3511   33.5497 C   0  0  0  0  0  0  0  0  0  0  0  0
   -0.7911   -7.8761   35.0476 C   0  0  0  0  0  0  0  0  0  0  0  0
   -0.1694   -6.9571   36.1108 C   0  0  0  0  0  0  0  0  0  0  0  0
    0.6488   -5.9506   35.4274 N   0  0  0  0  0  0  0  0  0  0  0  0
    0.7759   -4.6709   35.9531 C   0  0  0  0  0  0  0  0  0  0  0  0
    1.4218   -3.7079   35.2674 C   0  0  0  0  0  0  0  0  0  0  0  0
    2.0640   -2.7250   35.9577 N   0  0  0  0  0  0  0  0  0  0  0  0
    3.0789   -1.7896   35.5464 C   0  0  0  0  0  0  0  0  0  0  0  0
    3.5626   -1.5809   34.4692 O   0  0  0  0  0  0  0  0  0  0  0  0
    3.6388   -1.0603   36.7541 C   0  0  0  0  0  0  0  0  0  0  0  0
    4.5938   -1.9863   37.5339 C   0  0  0  0  0  0  0  0  0  0  0  0
    3.8523   -2.8914   38.6121 C   0  0  0  0  0  0  0  0  0  0  0  0
    4.4539   -3.8719   39.4292 C   0  0  0  0  0  0  0  0  0  0  0  0
    3.4111   -4.3859   40.1536 C   0  0  0  0  0  0  0  0  0  0  0  0
    2.2605   -3.7613   39.8016 O   0  0  0  0  0  0  0  0  0  0  0  0
    2.5318   -2.8157   38.8272 N   0  0  0  0  0  0  0  0  0  0  0  0
    5.6181   -2.7745   36.6523 C   0  0  0  0  0  0  0  0  0  0  0  0
    6.6772   -2.4202   37.6154 N   0  0  0  0  0  0  0  0  0  0  0  0
    5.8616   -1.2811   38.0857 C   0  0  0  0  0  0  0  0  0  0  0  0
    1.6194   -3.9406   33.8263 C   0  0  0  0  0  0  0  0  0  0  0  0
    1.5613   -2.9395   32.8504 C   0  0  0  0  0  0  0  0  0  0  0  0
    1.6439   -3.2578   31.4890 C   0  0  0  0  0  0  0  0  0  0  0  0
    1.7634   -4.5834   31.0826 C   0  0  0  0  0  0  0  0  0  0  0  0
    1.8026   -5.5883   32.0422 C   0  0  0  0  0  0  0  0  0  0  0  0
    1.7397   -5.2633   33.4009 C   0  0  0  0  0  0  0  0  0  0  0  0
    1.5418   -6.3324   34.4118 C   0  0  0  0  0  0  0  0  0  0  0  0
    1.9887   -7.4616   34.2330 O   0  0  0  0  0  0  0  0  0  0  0  0
   -3.1540   -9.7642   36.7149 N   0  0  0  0  0  0  0  0  0  0  0  0
   -2.7341  -11.4934   40.9485 H   0  0  0  0  0  0  0  0  0  0  0  0
   -3.9933  -11.8831   42.0836 H   0  0  0  0  0  0  0  0  0  0  0  0
   -4.1587  -10.3930   41.1902 H   0  0  0  0  0  0  0  0  0  0  0  0
   -5.6544  -13.2411   41.5715 H   0  0  0  0  0  0  0  0  0  0  0  0
   -7.1470  -14.0385   39.4169 H   0  0  0  0  0  0  0  0  0  0  0  0
   -2.7612   -7.0987   35.0968 H   0  0  0  0  0  0  0  0  0  0  0  0
   -1.7048   -9.1818   32.9094 H   0  0  0  0  0  0  0  0  0  0  0  0
   -2.6473   -7.8447   32.5181 H   0  0  0  0  0  0  0  0  0  0  0  0
   -0.0150   -7.6266   32.8821 H   0  0  0  0  0  0  0  0  0  0  0  0
   -1.0754   -6.2889   33.4255 H   0  0  0  0  0  0  0  0  0  0  0  0
   -0.2549   -8.8099   35.1501 H   0  0  0  0  0  0  0  0  0  0  0  0
    0.4717   -7.5222   36.7963 H   0  0  0  0  0  0  0  0  0  0  0  0
   -0.9532   -6.4521   36.6850 H   0  0  0  0  0  0  0  0  0  0  0  0
    0.4965   -4.5638   36.9977 H   0  0  0  0  0  0  0  0  0  0  0  0
    1.9619   -2.6809   36.9728 H   0  0  0  0  0  0  0  0  0  0  0  0
    2.8331   -0.6557   37.3765 H   0  0  0  0  0  0  0  0  0  0  0  0
    4.1793   -0.1852   36.3698 H   0  0  0  0  0  0  0  0  0  0  0  0
    5.4918   -4.1669   39.4802 H   0  0  0  0  0  0  0  0  0  0  0  0
    3.3171   -5.1507   40.9103 H   0  0  0  0  0  0  0  0  0  0  0  0
    5.8038   -2.3548   35.6564 H   0  0  0  0  0  0  0  0  0  0  0  0
    5.4448   -3.8493   36.5406 H   0  0  0  0  0  0  0  0  0  0  0  0
    7.5701   -2.1650   37.1921 H   0  0  0  0  0  0  0  0  0  0  0  0
    6.1210   -0.3362   37.5922 H   0  0  0  0  0  0  0  0  0  0  0  0
    5.8977   -1.1151   39.1671 H   0  0  0  0  0  0  0  0  0  0  0  0
    1.4276   -1.8988   33.1376 H   0  0  0  0  0  0  0  0  0  0  0  0
    1.5945   -2.4620   30.7486 H   0  0  0  0  0  0  0  0  0  0  0  0
    1.7937   -4.8272   30.0244 H   0  0  0  0  0  0  0  0  0  0  0  0
    1.8037   -6.6255   31.7401 H   0  0  0  0  0  0  0  0  0  0  0  0
  1  2  1  0
  2  3  1  0
  3  4  2  0
  4  5  1  0
  5  6  2  0
  6  7  1  0
  7  8  2  0
  8  9  1  0
  9 10  1  0
 10 11  1  0
 11 12  1  0
 12 13  1  0
 13 14  1  0
 14 15  1  0
 15 16  1  0
 16 17  1  0
 17 18  2  0
 18 19  1  0
 19 20  1  0
 20 21  2  0
 20 22  1  0
 22 23  1  0
 23 24  1  0
 24 25  1  0
 25 26  2  0
 26 27  1  0
 27 28  1  0
 23 29  1  0
 29 30  1  0
 30 31  1  0
 18 32  1  0
 32 33  2  0
 33 34  1  0
 34 35  2  0
 35 36  1  0
 36 37  2  0
 37 38  1  0
 38 39  2  0
 10 40  2  0
  6  2  1  0
 40  7  1  0
 14 11  1  0
 38 16  1  0
 31 23  1  0
 37 32  1  0
 28 24  2  0
  1 41  1  0
  1 42  1  0
  1 43  1  0
  3 44  1  0
  4 45  1  0
 11 46  1  0
 12 47  1  0
 12 48  1  0
 13 49  1  0
 13 50  1  0
 14 51  1  0
 15 52  1  0
 15 53  1  0
 17 54  1  0
 19 55  1  0
 22 56  1  0
 22 57  1  0
 25 58  1  0
 26 59  1  0
 29 60  1  0
 29 61  1  0
 30 62  1  0
 31 63  1  0
 31 64  1  0
 33 65  1  0
 34 66  1  0
 35 67  1  0
 36 68  1  0
M  END
>  <Energy>  (1090) 
234.08729002392926

>  <compound_id>  (1090) 
4515

>  <target_id>  (1090) 
1

>  <reference_id>  (1090) 
165

>  <inspiration_ids>  (1090) 
[159, 165]

>  <energy_score>  (1090) 
55.92957998072836

>  <distance_score>  (1090) 
4.002149457047485

>  <path>  (1090) 
/opt/xchem-fragalysis-2/maxwin/BulkDock/SCRATCH/505735/C4515-P165/C4515-P165.minimised.mol

>  <scratch_subdir>  (1090) 
/opt/xchem-fragalysis-2/maxwin/BulkDock/SCRATCH/505735/C4515-P165

>  <fragmenstein_runtime>  (1090) 
29.711272954940796

>  <fragmenstein_outcome>  (1090) 
too moved

>  <fragmenstein_mode>  (1090) 
expansion

>  <fragmenstein_error>  (1090) 


$$$$
C2278-P159
     RDKit          3D

 70 75  0  0  0  0  0  0  0  0999 V2000
    4.2416   -3.3382   26.1644 C   0  0  0  0  0  0  0  0  0  0  0  0
    5.5463   -3.8086   26.6823 C   0  0  0  0  0  0  0  0  0  0  0  0
    5.6921   -5.1065   27.1009 C   0  0  0  0  0  0  0  0  0  0  0  0
    6.7071   -5.2907   27.9993 C   0  0  0  0  0  0  0  0  0  0  0  0
    6.5816   -6.3360   28.9750 N   0  0  0  0  0  0  0  0  0  0  0  0
    7.6564   -7.2847   28.6026 C   0  0  0  0  0  0  0  0  0  0  0  0
    7.9952   -8.2200   29.7298 C   0  0  0  0  0  0  0  0  0  0  0  0
    8.4806   -7.3914   30.8976 C   0  0  0  0  0  0  0  0  0  0  0  0
    7.3571   -6.4937   31.3933 C   0  0  0  0  0  0  0  0  0  0  0  0
    6.6304   -5.6382   30.3051 C   0  0  0  0  0  0  0  0  0  0  0  0
    5.2453   -5.0154   30.7625 N   0  0  0  0  0  0  0  0  0  0  0  0
    5.1048   -4.6615   32.1445 C   0  0  0  0  0  0  0  0  0  0  0  0
    3.9251   -4.3840   32.7546 C   0  0  0  0  0  0  0  0  0  0  0  0
    3.7065   -4.4630   34.1119 N   0  0  0  0  0  0  0  0  0  0  0  0
    4.4124   -5.3333   35.2061 C   0  0  0  0  0  0  0  0  0  0  0  0
    5.3331   -6.0513   35.1255 O   0  0  0  0  0  0  0  0  0  0  0  0
    3.5563   -5.1404   36.4729 C   0  0  0  0  0  0  0  0  0  0  0  0
    3.6735   -6.2401   37.5493 C   0  0  0  0  0  0  0  0  0  0  0  0
    5.0357   -6.1394   38.3279 C   0  0  0  0  0  0  0  0  0  0  0  0
    6.2038   -6.8690   38.0344 C   0  0  0  0  0  0  0  0  0  0  0  0
    7.1105   -6.4172   38.9571 C   0  0  0  0  0  0  0  0  0  0  0  0
    6.5310   -5.4775   39.7455 O   0  0  0  0  0  0  0  0  0  0  0  0
    5.2172   -5.2895   39.3441 N   0  0  0  0  0  0  0  0  0  0  0  0
    2.4498   -6.3284   38.5173 C   0  0  0  0  0  0  0  0  0  0  0  0
    1.8905   -7.4101   37.6716 N   0  0  0  0  0  0  0  0  0  0  0  0
    3.2513   -7.6932   37.1745 C   0  0  0  0  0  0  0  0  0  0  0  0
    2.6751   -4.2709   31.9508 C   0  0  0  0  0  0  0  0  0  0  0  0
    1.3848   -4.0962   32.5189 C   0  0  0  0  0  0  0  0  0  0  0  0
    0.2253   -4.1356   31.7404 C   0  0  0  0  0  0  0  0  0  0  0  0
    0.3215   -4.3829   30.3818 C   0  0  0  0  0  0  0  0  0  0  0  0
    1.5779   -4.5734   29.8082 C   0  0  0  0  0  0  0  0  0  0  0  0
    2.7568   -4.5217   30.5799 C   0  0  0  0  0  0  0  0  0  0  0  0
    4.0434   -5.0444   29.9730 C   0  0  0  0  0  0  0  0  0  0  0  0
    3.8458   -5.7101   28.9538 O   0  0  0  0  0  0  0  0  0  0  0  0
    7.7014   -4.3981   28.1605 N   0  0  0  0  0  0  0  0  0  0  0  0
    7.5560   -3.2051   27.5610 C   0  0  0  0  0  0  0  0  0  0  0  0
    8.6793   -2.2060   27.7170 C   0  0  0  0  0  0  0  0  0  0  0  0
    9.7800   -2.7370   28.4710 O   0  0  0  0  0  0  0  0  0  0  0  0
    6.4533   -2.8351   26.9095 N   0  0  0  0  0  0  0  0  0  0  0  0
    3.7009   -2.8454   26.9792 H   0  0  0  0  0  0  0  0  0  0  0  0
    4.4089   -2.6203   25.3569 H   0  0  0  0  0  0  0  0  0  0  0  0
    3.6272   -4.1627   25.8026 H   0  0  0  0  0  0  0  0  0  0  0  0
    4.9300   -5.8554   26.9433 H   0  0  0  0  0  0  0  0  0  0  0  0
    8.5815   -6.7769   28.2919 H   0  0  0  0  0  0  0  0  0  0  0  0
    7.3149   -7.8767   27.7430 H   0  0  0  0  0  0  0  0  0  0  0  0
    8.7750   -8.9147   29.4004 H   0  0  0  0  0  0  0  0  0  0  0  0
    7.0991   -8.7904   29.9936 H   0  0  0  0  0  0  0  0  0  0  0  0
    8.8280   -8.0265   31.7185 H   0  0  0  0  0  0  0  0  0  0  0  0
    9.3383   -6.7768   30.5969 H   0  0  0  0  0  0  0  0  0  0  0  0
    7.7979   -5.8093   32.1314 H   0  0  0  0  0  0  0  0  0  0  0  0
    6.6713   -7.1001   31.9800 H   0  0  0  0  0  0  0  0  0  0  0  0
    7.2618   -4.7407   30.2762 H   0  0  0  0  0  0  0  0  0  0  0  0
    5.9972   -4.7686   32.7524 H   0  0  0  0  0  0  0  0  0  0  0  0
    2.9878   -3.8949   34.5423 H   0  0  0  0  0  0  0  0  0  0  0  0
    2.5058   -5.0860   36.1577 H   0  0  0  0  0  0  0  0  0  0  0  0
    3.8114   -4.1621   36.8991 H   0  0  0  0  0  0  0  0  0  0  0  0
    6.3709   -7.6011   37.2586 H   0  0  0  0  0  0  0  0  0  0  0  0
    8.1452   -6.6363   39.1746 H   0  0  0  0  0  0  0  0  0  0  0  0
    1.8193   -5.4362   38.5815 H   0  0  0  0  0  0  0  0  0  0  0  0
    2.6768   -6.6619   39.5380 H   0  0  0  0  0  0  0  0  0  0  0  0
    1.4661   -8.1746   38.2046 H   0  0  0  0  0  0  0  0  0  0  0  0
    3.7530   -8.4908   37.7367 H   0  0  0  0  0  0  0  0  0  0  0  0
    3.2945   -7.9480   36.1112 H   0  0  0  0  0  0  0  0  0  0  0  0
    1.2451   -3.9194   33.5808 H   0  0  0  0  0  0  0  0  0  0  0  0
   -0.7444   -3.9652   32.2022 H   0  0  0  0  0  0  0  0  0  0  0  0
   -0.5622   -4.3911   29.7496 H   0  0  0  0  0  0  0  0  0  0  0  0
    1.6453   -4.7801   28.7425 H   0  0  0  0  0  0  0  0  0  0  0  0
    8.3126   -1.3159   28.2361 H   0  0  0  0  0  0  0  0  0  0  0  0
    9.0542   -1.9153   26.7320 H   0  0  0  0  0  0  0  0  0  0  0  0
    9.5692   -3.6889   28.5608 H   0  0  0  0  0  0  0  0  0  0  0  0
  1  2  1  0
  2  3  2  0
  3  4  1  0
  4  5  1  0
  5  6  1  0
  6  7  1  0
  7  8  1  0
  8  9  1  0
  9 10  1  0
 10 11  1  0
 11 12  1  0
 12 13  2  0
 13 14  1  0
 14 15  1  0
 15 16  2  0
 15 17  1  0
 17 18  1  0
 18 19  1  0
 19 20  1  0
 20 21  2  0
 21 22  1  0
 22 23  1  0
 18 24  1  0
 24 25  1  0
 25 26  1  0
 13 27  1  0
 27 28  2  0
 28 29  1  0
 29 30  2  0
 30 31  1  0
 31 32  2  0
 32 33  1  0
 33 34  2  0
  4 35  2  0
 35 36  1  0
 36 37  1  0
 37 38  1  0
 36 39  2  0
 39  2  1  0
 10  5  1  0
 33 11  1  0
 26 18  1  0
 32 27  1  0
 23 19  2  0
  1 40  1  0
  1 41  1  0
  1 42  1  0
  3 43  1  0
  6 44  1  0
  6 45  1  0
  7 46  1  0
  7 47  1  0
  8 48  1  0
  8 49  1  0
  9 50  1  0
  9 51  1  0
 10 52  1  0
 12 53  1  0
 14 54  1  0
 17 55  1  0
 17 56  1  0
 20 57  1  0
 21 58  1  0
 24 59  1  0
 24 60  1  0
 25 61  1  0
 26 62  1  0
 26 63  1  0
 28 64  1  0
 29 65  1  0
 30 66  1  0
 31 67  1  0
 37 68  1  0
 37 69  1  0
 38 70  1  0
M  END
>  <Energy>  (1091) 
71.487655393976468

>  <compound_id>  (1091) 
2278

>  <target_id>  (1091) 
1

>  <reference_id>  (1091) 
159

>  <inspiration_ids>  (1091) 
[159, 175]

>  <energy_score>  (1091) 
-33.4480648661426

>  <distance_score>  (1091) 
3.2126329544985297

>  <path>  (1091) 
/opt/xchem-fragalysis-2/maxwin/BulkDock/SCRATCH/505735/C2278-P159/C2278-P159.minimised.mol

>  <scratch_subdir>  (1091) 
/opt/xchem-fragalysis-2/maxwin/BulkDock/SCRATCH/505735/C2278-P159

>  <fragmenstein_runtime>  (1091) 
16.198254823684692

>  <fragmenstein_outcome>  (1091) 
too moved

>  <fragmenstein_mode>  (1091) 
expansion

>  <fragmenstein_error>  (1091) 


$$$$
C2278-P175
     RDKit          3D

 70 75  0  0  0  0  0  0  0  0999 V2000
    4.6753   -1.2469   25.4758 C   0  0  0  0  0  0  0  0  0  0  0  0
    5.5929   -1.8124   26.5152 C   0  0  0  0  0  0  0  0  0  0  0  0
    5.7065   -3.1775   26.6960 C   0  0  0  0  0  0  0  0  0  0  0  0
    6.4776   -3.6127   27.7582 C   0  0  0  0  0  0  0  0  0  0  0  0
    6.5114   -4.9707   28.0670 N   0  0  0  0  0  0  0  0  0  0  0  0
    7.2130   -5.8305   27.1080 C   0  0  0  0  0  0  0  0  0  0  0  0
    8.5225   -6.3415   27.7032 C   0  0  0  0  0  0  0  0  0  0  0  0
    8.2896   -7.1420   28.9812 C   0  0  0  0  0  0  0  0  0  0  0  0
    6.9911   -6.7574   29.6896 C   0  0  0  0  0  0  0  0  0  0  0  0
    6.6239   -5.2788   29.4894 C   0  0  0  0  0  0  0  0  0  0  0  0
    5.3601   -4.9060   30.1782 N   0  0  0  0  0  0  0  0  0  0  0  0
    5.4257   -4.5061   31.5230 C   0  0  0  0  0  0  0  0  0  0  0  0
    4.3316   -4.4106   32.3078 C   0  0  0  0  0  0  0  0  0  0  0  0
    4.4571   -4.5068   33.6726 N   0  0  0  0  0  0  0  0  0  0  0  0
    3.5677   -5.0832   34.6756 C   0  0  0  0  0  0  0  0  0  0  0  0
    2.4702   -5.5460   34.5699 O   0  0  0  0  0  0  0  0  0  0  0  0
    4.2408   -4.9983   36.0453 C   0  0  0  0  0  0  0  0  0  0  0  0
    3.7030   -5.8697   37.2040 C   0  0  0  0  0  0  0  0  0  0  0  0
    4.4633   -5.4583   38.5348 C   0  0  0  0  0  0  0  0  0  0  0  0
    5.6275   -6.0745   39.0375 C   0  0  0  0  0  0  0  0  0  0  0  0
    5.9180   -5.3501   40.1644 C   0  0  0  0  0  0  0  0  0  0  0  0
    5.0069   -4.3570   40.3173 O   0  0  0  0  0  0  0  0  0  0  0  0
    4.0908   -4.4122   39.2790 N   0  0  0  0  0  0  0  0  0  0  0  0
    2.1682   -6.0140   37.4459 C   0  0  0  0  0  0  0  0  0  0  0  0
    2.2087   -7.3527   36.8299 N   0  0  0  0  0  0  0  0  0  0  0  0
    3.6612   -7.4163   36.9961 C   0  0  0  0  0  0  0  0  0  0  0  0
    3.0076   -4.3771   31.6505 C   0  0  0  0  0  0  0  0  0  0  0  0
    1.8462   -3.8702   32.2576 C   0  0  0  0  0  0  0  0  0  0  0  0
    0.6289   -3.8136   31.5694 C   0  0  0  0  0  0  0  0  0  0  0  0
    0.5576   -4.2322   30.2466 C   0  0  0  0  0  0  0  0  0  0  0  0
    1.7061   -4.7050   29.6189 C   0  0  0  0  0  0  0  0  0  0  0  0
    2.9163   -4.7811   30.3173 C   0  0  0  0  0  0  0  0  0  0  0  0
    4.1250   -5.2904   29.6237 C   0  0  0  0  0  0  0  0  0  0  0  0
    3.9589   -6.0589   28.6767 O   0  0  0  0  0  0  0  0  0  0  0  0
    7.1125   -2.7450   28.5657 N   0  0  0  0  0  0  0  0  0  0  0  0
    6.9699   -1.4293   28.2981 C   0  0  0  0  0  0  0  0  0  0  0  0
    7.6935   -0.4673   29.2163 C   0  0  0  0  0  0  0  0  0  0  0  0
    8.4533   -1.1540   30.2238 O   0  0  0  0  0  0  0  0  0  0  0  0
    6.2234   -0.9221   27.3072 N   0  0  0  0  0  0  0  0  0  0  0  0
    4.9947   -0.2401   25.1880 H   0  0  0  0  0  0  0  0  0  0  0  0
    4.6684   -1.8674   24.5761 H   0  0  0  0  0  0  0  0  0  0  0  0
    3.6607   -1.1843   25.8789 H   0  0  0  0  0  0  0  0  0  0  0  0
    5.1662   -3.8814   26.0758 H   0  0  0  0  0  0  0  0  0  0  0  0
    7.4213   -5.3141   26.1638 H   0  0  0  0  0  0  0  0  0  0  0  0
    6.5626   -6.6786   26.8589 H   0  0  0  0  0  0  0  0  0  0  0  0
    9.1702   -5.4854   27.9311 H   0  0  0  0  0  0  0  0  0  0  0  0
    9.0601   -6.9557   26.9724 H   0  0  0  0  0  0  0  0  0  0  0  0
    8.2648   -8.2147   28.7540 H   0  0  0  0  0  0  0  0  0  0  0  0
    9.1425   -6.9911   29.6541 H   0  0  0  0  0  0  0  0  0  0  0  0
    6.1852   -7.4005   29.3162 H   0  0  0  0  0  0  0  0  0  0  0  0
    7.1090   -6.9685   30.7569 H   0  0  0  0  0  0  0  0  0  0  0  0
    7.4398   -4.6947   29.9391 H   0  0  0  0  0  0  0  0  0  0  0  0
    6.4251   -4.4824   31.9478 H   0  0  0  0  0  0  0  0  0  0  0  0
    5.3476   -4.2894   34.1047 H   0  0  0  0  0  0  0  0  0  0  0  0
    5.3052   -5.2373   35.9178 H   0  0  0  0  0  0  0  0  0  0  0  0
    4.1773   -3.9403   36.3344 H   0  0  0  0  0  0  0  0  0  0  0  0
    6.1760   -6.9191   38.6500 H   0  0  0  0  0  0  0  0  0  0  0  0
    6.6874   -5.3975   40.9208 H   0  0  0  0  0  0  0  0  0  0  0  0
    1.5249   -5.2925   36.9339 H   0  0  0  0  0  0  0  0  0  0  0  0
    1.8589   -6.0445   38.4985 H   0  0  0  0  0  0  0  0  0  0  0  0
    1.6540   -8.0630   37.3118 H   0  0  0  0  0  0  0  0  0  0  0  0
    3.9595   -8.0267   37.8567 H   0  0  0  0  0  0  0  0  0  0  0  0
    4.1958   -7.7906   36.1171 H   0  0  0  0  0  0  0  0  0  0  0  0
    1.8702   -3.4893   33.2756 H   0  0  0  0  0  0  0  0  0  0  0  0
   -0.2531   -3.4177   32.0676 H   0  0  0  0  0  0  0  0  0  0  0  0
   -0.3744   -4.1546   29.6919 H   0  0  0  0  0  0  0  0  0  0  0  0
    1.6790   -4.9762   28.5696 H   0  0  0  0  0  0  0  0  0  0  0  0
    6.9685    0.1789   29.7199 H   0  0  0  0  0  0  0  0  0  0  0  0
    8.3835    0.1492   28.6327 H   0  0  0  0  0  0  0  0  0  0  0  0
    8.3510   -2.1006   29.9949 H   0  0  0  0  0  0  0  0  0  0  0  0
  1  2  1  0
  2  3  2  0
  3  4  1  0
  4  5  1  0
  5  6  1  0
  6  7  1  0
  7  8  1  0
  8  9  1  0
  9 10  1  0
 10 11  1  0
 11 12  1  0
 12 13  2  0
 13 14  1  0
 14 15  1  0
 15 16  2  0
 15 17  1  0
 17 18  1  0
 18 19  1  0
 19 20  1  0
 20 21  2  0
 21 22  1  0
 22 23  1  0
 18 24  1  0
 24 25  1  0
 25 26  1  0
 13 27  1  0
 27 28  2  0
 28 29  1  0
 29 30  2  0
 30 31  1  0
 31 32  2  0
 32 33  1  0
 33 34  2  0
  4 35  2  0
 35 36  1  0
 36 37  1  0
 37 38  1  0
 36 39  2  0
 39  2  1  0
 10  5  1  0
 33 11  1  0
 26 18  1  0
 32 27  1  0
 23 19  2  0
  1 40  1  0
  1 41  1  0
  1 42  1  0
  3 43  1  0
  6 44  1  0
  6 45  1  0
  7 46  1  0
  7 47  1  0
  8 48  1  0
  8 49  1  0
  9 50  1  0
  9 51  1  0
 10 52  1  0
 12 53  1  0
 14 54  1  0
 17 55  1  0
 17 56  1  0
 20 57  1  0
 21 58  1  0
 24 59  1  0
 24 60  1  0
 25 61  1  0
 26 62  1  0
 26 63  1  0
 28 64  1  0
 29 65  1  0
 30 66  1  0
 31 67  1  0
 37 68  1  0
 37 69  1  0
 38 70  1  0
M  END
>  <Energy>  (1092) 
34.730037414312321

>  <compound_id>  (1092) 
2278

>  <target_id>  (1092) 
1

>  <reference_id>  (1092) 
175

>  <inspiration_ids>  (1092) 
[159, 175]

>  <energy_score>  (1092) 
-85.85972188204909

>  <distance_score>  (1092) 
3.808574521690444

>  <path>  (1092) 
/opt/xchem-fragalysis-2/maxwin/BulkDock/SCRATCH/505735/C2278-P175/C2278-P175.minimised.mol

>  <scratch_subdir>  (1092) 
/opt/xchem-fragalysis-2/maxwin/BulkDock/SCRATCH/505735/C2278-P175

>  <fragmenstein_runtime>  (1092) 
23.9292151927948

>  <fragmenstein_outcome>  (1092) 
too moved

>  <fragmenstein_mode>  (1092) 
expansion

>  <fragmenstein_error>  (1092) 


$$$$
C419-P159
     RDKit          3D

 71 77  0  0  0  0  0  0  0  0999 V2000
   -0.2194   -6.0380   37.0994 O   0  0  0  0  0  0  0  0  0  0  0  0
   -0.3140   -4.8951   37.4560 C   0  0  0  0  0  0  0  0  0  0  0  0
   -0.0922   -4.5455   38.9234 C   0  0  0  0  0  0  0  0  0  0  0  0
    0.8646   -5.5111   39.6499 C   0  0  0  0  0  0  0  0  0  0  0  0
    0.1702   -6.7746   40.2648 C   0  0  0  0  0  0  0  0  0  0  0  0
    0.3326   -8.1024   39.8270 C   0  0  0  0  0  0  0  0  0  0  0  0
   -0.3505   -8.8380   40.7603 C   0  0  0  0  0  0  0  0  0  0  0  0
   -0.9218   -8.0093   41.6684 O   0  0  0  0  0  0  0  0  0  0  0  0
   -0.5952   -6.6980   41.3594 N   0  0  0  0  0  0  0  0  0  0  0  0
    2.2506   -5.7875   38.9810 C   0  0  0  0  0  0  0  0  0  0  0  0
    2.7750   -4.5922   39.6769 N   0  0  0  0  0  0  0  0  0  0  0  0
    1.7433   -4.7905   40.7221 C   0  0  0  0  0  0  0  0  0  0  0  0
   -0.5763   -3.6781   36.6936 N   0  0  0  0  0  0  0  0  0  0  0  0
   -0.7019   -3.4718   35.3393 C   0  0  0  0  0  0  0  0  0  0  0  0
   -1.3639   -2.3995   34.8637 C   0  0  0  0  0  0  0  0  0  0  0  0
   -1.7592   -2.2936   33.5347 N   0  0  0  0  0  0  0  0  0  0  0  0
   -2.4005   -1.1036   33.0102 C   0  0  0  0  0  0  0  0  0  0  0  0
   -1.4408   -0.1914   32.3889 N   0  0  0  0  0  0  0  0  0  0  0  0
   -0.9457   -0.3298   31.1127 C   0  0  0  0  0  0  0  0  0  0  0  0
    0.0932    0.5630   30.9613 C   0  0  0  0  0  0  0  0  0  0  0  0
    0.9517    0.6305   29.7925 C   0  0  0  0  0  0  0  0  0  0  0  0
    1.6896   -0.4900   29.3966 C   0  0  0  0  0  0  0  0  0  0  0  0
    2.6201   -0.3904   28.3583 C   0  0  0  0  0  0  0  0  0  0  0  0
    2.8151    0.8246   27.6875 C   0  0  0  0  0  0  0  0  0  0  0  0
    3.8362    0.9323   26.5890 C   0  0  0  0  0  0  0  0  0  0  0  0
    5.1204    1.1276   27.1622 O   0  0  0  0  0  0  0  0  0  0  0  0
    2.0607    1.9397   28.0766 C   0  0  0  0  0  0  0  0  0  0  0  0
    1.1335    1.8430   29.1191 C   0  0  0  0  0  0  0  0  0  0  0  0
    0.1954    1.3044   32.1785 C   0  0  0  0  0  0  0  0  0  0  0  0
    1.0571    2.3270   32.6272 C   0  0  0  0  0  0  0  0  0  0  0  0
    0.9097    2.8419   33.9175 C   0  0  0  0  0  0  0  0  0  0  0  0
   -0.0743    2.3541   34.7683 C   0  0  0  0  0  0  0  0  0  0  0  0
   -0.9332    1.3336   34.3555 C   0  0  0  0  0  0  0  0  0  0  0  0
   -0.7810    0.8221   33.0542 C   0  0  0  0  0  0  0  0  0  0  0  0
   -1.5869   -3.3278   32.6309 C   0  0  0  0  0  0  0  0  0  0  0  0
   -2.1523   -3.4024   31.5436 O   0  0  0  0  0  0  0  0  0  0  0  0
   -0.6385   -4.3721   33.0233 C   0  0  0  0  0  0  0  0  0  0  0  0
   -0.1726   -5.2287   32.0286 C   0  0  0  0  0  0  0  0  0  0  0  0
    0.8596   -6.0882   32.3285 C   0  0  0  0  0  0  0  0  0  0  0  0
    1.4415   -6.0621   33.5912 C   0  0  0  0  0  0  0  0  0  0  0  0
    0.9493   -5.2193   34.5802 C   0  0  0  0  0  0  0  0  0  0  0  0
   -0.1462   -4.3973   34.3333 C   0  0  0  0  0  0  0  0  0  0  0  0
    0.3146   -3.5277   38.9784 H   0  0  0  0  0  0  0  0  0  0  0  0
   -1.0709   -4.5180   39.4169 H   0  0  0  0  0  0  0  0  0  0  0  0
    0.8839   -8.4875   38.9825 H   0  0  0  0  0  0  0  0  0  0  0  0
   -0.5256   -9.8926   40.9107 H   0  0  0  0  0  0  0  0  0  0  0  0
    2.7544   -6.7123   39.2897 H   0  0  0  0  0  0  0  0  0  0  0  0
    2.3034   -5.7247   37.8912 H   0  0  0  0  0  0  0  0  0  0  0  0
    3.7351   -4.6781   40.0116 H   0  0  0  0  0  0  0  0  0  0  0  0
    1.3403   -3.8640   41.1429 H   0  0  0  0  0  0  0  0  0  0  0  0
    2.0913   -5.4190   41.5525 H   0  0  0  0  0  0  0  0  0  0  0  0
   -0.6713   -2.8991   37.3346 H   0  0  0  0  0  0  0  0  0  0  0  0
   -1.7239   -1.6194   35.5256 H   0  0  0  0  0  0  0  0  0  0  0  0
   -3.1443   -1.3527   32.2437 H   0  0  0  0  0  0  0  0  0  0  0  0
   -2.9315   -0.5694   33.8052 H   0  0  0  0  0  0  0  0  0  0  0  0
   -1.3354   -1.0836   30.4377 H   0  0  0  0  0  0  0  0  0  0  0  0
    1.5722   -1.4365   29.9177 H   0  0  0  0  0  0  0  0  0  0  0  0
    3.2073   -1.2631   28.0844 H   0  0  0  0  0  0  0  0  0  0  0  0
    3.6109    1.7727   25.9237 H   0  0  0  0  0  0  0  0  0  0  0  0
    3.8520    0.0181   25.9878 H   0  0  0  0  0  0  0  0  0  0  0  0
    5.7366    1.2048   26.4149 H   0  0  0  0  0  0  0  0  0  0  0  0
    2.2008    2.8977   27.5813 H   0  0  0  0  0  0  0  0  0  0  0  0
    0.5684    2.7256   29.4118 H   0  0  0  0  0  0  0  0  0  0  0  0
    1.8379    2.7102   31.9751 H   0  0  0  0  0  0  0  0  0  0  0  0
    1.5774    3.6313   34.2547 H   0  0  0  0  0  0  0  0  0  0  0  0
   -0.1684    2.7677   35.7697 H   0  0  0  0  0  0  0  0  0  0  0  0
   -1.6875    0.9568   35.0365 H   0  0  0  0  0  0  0  0  0  0  0  0
   -0.5589   -5.1809   31.0144 H   0  0  0  0  0  0  0  0  0  0  0  0
    1.2261   -6.7225   31.5383 H   0  0  0  0  0  0  0  0  0  0  0  0
    2.3027   -6.6679   33.8367 H   0  0  0  0  0  0  0  0  0  0  0  0
    1.4611   -5.2021   35.5372 H   0  0  0  0  0  0  0  0  0  0  0  0
  1  2  2  0
  2  3  1  0
  3  4  1  0
  4  5  1  0
  5  6  1  0
  6  7  2  0
  7  8  1  0
  8  9  1  0
  4 10  1  0
 10 11  1  0
 11 12  1  0
  2 13  1  0
 13 14  1  0
 14 15  2  0
 15 16  1  0
 16 17  1  0
 17 18  1  0
 18 19  1  0
 19 20  2  0
 20 21  1  0
 21 22  2  0
 22 23  1  0
 23 24  2  0
 24 25  1  0
 25 26  1  0
 24 27  1  0
 27 28  2  0
 20 29  1  0
 29 30  2  0
 30 31  1  0
 31 32  2  0
 32 33  1  0
 33 34  2  0
 16 35  1  0
 35 36  2  0
 35 37  1  0
 37 38  2  0
 38 39  1  0
 39 40  2  0
 40 41  1  0
 41 42  2  0
 12  4  1  0
 42 14  1  0
  9  5  2  0
 34 18  1  0
 42 37  1  0
 28 21  1  0
 34 29  1  0
  3 43  1  0
  3 44  1  0
  6 45  1  0
  7 46  1  0
 10 47  1  0
 10 48  1  0
 11 49  1  0
 12 50  1  0
 12 51  1  0
 13 52  1  0
 15 53  1  0
 17 54  1  0
 17 55  1  0
 19 56  1  0
 22 57  1  0
 23 58  1  0
 25 59  1  0
 25 60  1  0
 26 61  1  0
 27 62  1  0
 28 63  1  0
 30 64  1  0
 31 65  1  0
 32 66  1  0
 33 67  1  0
 38 68  1  0
 39 69  1  0
 40 70  1  0
 41 71  1  0
M  END
>  <Energy>  (1093) 
96.666974405193727

>  <compound_id>  (1093) 
419

>  <target_id>  (1093) 
1

>  <reference_id>  (1093) 
159

>  <inspiration_ids>  (1093) 
[159, 186]

>  <energy_score>  (1093) 
-74.68244697297058

>  <distance_score>  (1093) 
3.593397502237628

>  <path>  (1093) 
/opt/xchem-fragalysis-2/maxwin/BulkDock/SCRATCH/505735/C419-P159/C419-P159.minimised.mol

>  <scratch_subdir>  (1093) 
/opt/xchem-fragalysis-2/maxwin/BulkDock/SCRATCH/505735/C419-P159

>  <fragmenstein_runtime>  (1093) 
41.572550773620605

>  <fragmenstein_outcome>  (1093) 
too moved

>  <fragmenstein_mode>  (1093) 
expansion

>  <fragmenstein_error>  (1093) 


$$$$
C419-P186
     RDKit          3D

 71 77  0  0  0  0  0  0  0  0999 V2000
    0.4885   -6.3747   36.3301 O   0  0  0  0  0  0  0  0  0  0  0  0
    0.0320   -5.3564   36.6905 C   0  0  0  0  0  0  0  0  0  0  0  0
   -0.2214   -5.0377   38.1520 C   0  0  0  0  0  0  0  0  0  0  0  0
    0.3714   -5.9899   39.2140 C   0  0  0  0  0  0  0  0  0  0  0  0
   -0.0666   -5.4772   40.6740 C   0  0  0  0  0  0  0  0  0  0  0  0
   -0.1976   -6.2708   41.8336 C   0  0  0  0  0  0  0  0  0  0  0  0
   -0.5776   -5.3809   42.8029 C   0  0  0  0  0  0  0  0  0  0  0  0
   -0.6677   -4.1376   42.2707 O   0  0  0  0  0  0  0  0  0  0  0  0
   -0.3398   -4.1894   40.9258 N   0  0  0  0  0  0  0  0  0  0  0  0
    0.2966   -7.5483   39.0544 C   0  0  0  0  0  0  0  0  0  0  0  0
    1.6716   -7.6367   39.5794 N   0  0  0  0  0  0  0  0  0  0  0  0
    1.9056   -6.2444   39.1454 C   0  0  0  0  0  0  0  0  0  0  0  0
   -0.4717   -4.1149   35.8621 N   0  0  0  0  0  0  0  0  0  0  0  0
   -0.5916   -3.9382   34.5015 C   0  0  0  0  0  0  0  0  0  0  0  0
   -1.3994   -3.0043   33.9699 C   0  0  0  0  0  0  0  0  0  0  0  0
   -1.7779   -3.0213   32.6324 N   0  0  0  0  0  0  0  0  0  0  0  0
   -2.5613   -1.9666   32.0069 C   0  0  0  0  0  0  0  0  0  0  0  0
   -1.7519   -1.0008   31.2491 N   0  0  0  0  0  0  0  0  0  0  0  0
   -1.3094   -1.1617   29.9539 C   0  0  0  0  0  0  0  0  0  0  0  0
   -0.1256   -0.4665   29.8301 C   0  0  0  0  0  0  0  0  0  0  0  0
    0.8433   -0.6583   28.7573 C   0  0  0  0  0  0  0  0  0  0  0  0
    1.5839    0.4266   28.2750 C   0  0  0  0  0  0  0  0  0  0  0  0
    2.6791    0.2230   27.4299 C   0  0  0  0  0  0  0  0  0  0  0  0
    3.0347   -1.0689   27.0235 C   0  0  0  0  0  0  0  0  0  0  0  0
    4.2628   -1.2950   26.1860 C   0  0  0  0  0  0  0  0  0  0  0  0
    3.9298   -1.9838   24.9919 O   0  0  0  0  0  0  0  0  0  0  0  0
    2.2459   -2.1480   27.4449 C   0  0  0  0  0  0  0  0  0  0  0  0
    1.1614   -1.9460   28.3062 C   0  0  0  0  0  0  0  0  0  0  0  0
    0.0511    0.2653   31.0505 C   0  0  0  0  0  0  0  0  0  0  0  0
    1.0741    1.0880   31.5646 C   0  0  0  0  0  0  0  0  0  0  0  0
    0.9643    1.6058   32.8590 C   0  0  0  0  0  0  0  0  0  0  0  0
   -0.1445    1.3480   33.6494 C   0  0  0  0  0  0  0  0  0  0  0  0
   -1.1613    0.5266   33.1759 C   0  0  0  0  0  0  0  0  0  0  0  0
   -1.0279   -0.0163   31.8849 C   0  0  0  0  0  0  0  0  0  0  0  0
   -1.3834   -4.0097   31.7680 C   0  0  0  0  0  0  0  0  0  0  0  0
   -1.6382   -3.9986   30.5737 O   0  0  0  0  0  0  0  0  0  0  0  0
   -0.5980   -5.0827   32.3123 C   0  0  0  0  0  0  0  0  0  0  0  0
   -0.3142   -6.1461   31.4790 C   0  0  0  0  0  0  0  0  0  0  0  0
    0.7474   -6.9156   31.8204 C   0  0  0  0  0  0  0  0  0  0  0  0
    1.5504   -6.5347   32.8940 C   0  0  0  0  0  0  0  0  0  0  0  0
    1.1870   -5.5261   33.7608 C   0  0  0  0  0  0  0  0  0  0  0  0
    0.0051   -4.8713   33.5481 C   0  0  0  0  0  0  0  0  0  0  0  0
    0.1732   -4.0280   38.3262 H   0  0  0  0  0  0  0  0  0  0  0  0
   -1.3111   -4.9999   38.2742 H   0  0  0  0  0  0  0  0  0  0  0  0
   -0.0274   -7.3306   41.9543 H   0  0  0  0  0  0  0  0  0  0  0  0
   -0.8045   -5.4584   43.8554 H   0  0  0  0  0  0  0  0  0  0  0  0
   -0.4386   -8.0733   39.6700 H   0  0  0  0  0  0  0  0  0  0  0  0
    0.2073   -7.9355   38.0362 H   0  0  0  0  0  0  0  0  0  0  0  0
    2.2396   -8.3509   39.1230 H   0  0  0  0  0  0  0  0  0  0  0  0
    2.3522   -6.1712   38.1470 H   0  0  0  0  0  0  0  0  0  0  0  0
    2.5268   -5.6567   39.8293 H   0  0  0  0  0  0  0  0  0  0  0  0
   -0.8847   -3.4329   36.4888 H   0  0  0  0  0  0  0  0  0  0  0  0
   -1.8803   -2.2539   34.5876 H   0  0  0  0  0  0  0  0  0  0  0  0
   -3.2814   -2.4088   31.3145 H   0  0  0  0  0  0  0  0  0  0  0  0
   -3.1412   -1.4181   32.7570 H   0  0  0  0  0  0  0  0  0  0  0  0
   -1.7641   -1.8875   29.2899 H   0  0  0  0  0  0  0  0  0  0  0  0
    1.3321    1.4422   28.5717 H   0  0  0  0  0  0  0  0  0  0  0  0
    3.2491    1.0857   27.0916 H   0  0  0  0  0  0  0  0  0  0  0  0
    4.7622   -0.3555   25.9249 H   0  0  0  0  0  0  0  0  0  0  0  0
    4.9787   -1.9035   26.7488 H   0  0  0  0  0  0  0  0  0  0  0  0
    3.6414   -1.2830   24.3667 H   0  0  0  0  0  0  0  0  0  0  0  0
    2.4917   -3.1580   27.1233 H   0  0  0  0  0  0  0  0  0  0  0  0
    0.6007   -2.8100   28.6583 H   0  0  0  0  0  0  0  0  0  0  0  0
    1.9602    1.3039   30.9749 H   0  0  0  0  0  0  0  0  0  0  0  0
    1.7654    2.2343   33.2432 H   0  0  0  0  0  0  0  0  0  0  0  0
   -0.2035    1.7702   34.6491 H   0  0  0  0  0  0  0  0  0  0  0  0
   -2.0035    0.2875   33.8146 H   0  0  0  0  0  0  0  0  0  0  0  0
   -0.8110   -6.3129   30.5342 H   0  0  0  0  0  0  0  0  0  0  0  0
    0.9587   -7.7357   31.1567 H   0  0  0  0  0  0  0  0  0  0  0  0
    2.4871   -7.0036   33.1293 H   0  0  0  0  0  0  0  0  0  0  0  0
    1.8230   -5.2960   34.6098 H   0  0  0  0  0  0  0  0  0  0  0  0
  1  2  2  0
  2  3  1  0
  3  4  1  0
  4  5  1  0
  5  6  1  0
  6  7  2  0
  7  8  1  0
  8  9  1  0
  4 10  1  0
 10 11  1  0
 11 12  1  0
  2 13  1  0
 13 14  1  0
 14 15  2  0
 15 16  1  0
 16 17  1  0
 17 18  1  0
 18 19  1  0
 19 20  2  0
 20 21  1  0
 21 22  2  0
 22 23  1  0
 23 24  2  0
 24 25  1  0
 25 26  1  0
 24 27  1  0
 27 28  2  0
 20 29  1  0
 29 30  2  0
 30 31  1  0
 31 32  2  0
 32 33  1  0
 33 34  2  0
 16 35  1  0
 35 36  2  0
 35 37  1  0
 37 38  2  0
 38 39  1  0
 39 40  2  0
 40 41  1  0
 41 42  2  0
 12  4  1  0
 42 14  1  0
  9  5  2  0
 34 18  1  0
 42 37  1  0
 28 21  1  0
 34 29  1  0
  3 43  1  0
  3 44  1  0
  6 45  1  0
  7 46  1  0
 10 47  1  0
 10 48  1  0
 11 49  1  0
 12 50  1  0
 12 51  1  0
 13 52  1  0
 15 53  1  0
 17 54  1  0
 17 55  1  0
 19 56  1  0
 22 57  1  0
 23 58  1  0
 25 59  1  0
 25 60  1  0
 26 61  1  0
 27 62  1  0
 28 63  1  0
 30 64  1  0
 31 65  1  0
 32 66  1  0
 33 67  1  0
 38 68  1  0
 39 69  1  0
 40 70  1  0
 41 71  1  0
M  END
>  <Energy>  (1094) 
127.27752900759576

>  <compound_id>  (1094) 
419

>  <target_id>  (1094) 
1

>  <reference_id>  (1094) 
186

>  <inspiration_ids>  (1094) 
[159, 186]

>  <energy_score>  (1094) 
-34.92055180591353

>  <distance_score>  (1094) 
2.7047151895979726

>  <path>  (1094) 
/opt/xchem-fragalysis-2/maxwin/BulkDock/SCRATCH/505735/C419-P186/C419-P186.minimised.mol

>  <scratch_subdir>  (1094) 
/opt/xchem-fragalysis-2/maxwin/BulkDock/SCRATCH/505735/C419-P186

>  <fragmenstein_runtime>  (1094) 
30.96603560447693

>  <fragmenstein_outcome>  (1094) 
too moved

>  <fragmenstein_mode>  (1094) 
expansion

>  <fragmenstein_error>  (1094) 


$$$$
C4519-P159
     RDKit          3D

 65 70  0  0  0  0  0  0  0  0999 V2000
    0.2086   -6.7679   36.3090 O   0  0  0  0  0  0  0  0  0  0  0  0
    0.0284   -5.6288   36.5102 C   0  0  0  0  0  0  0  0  0  0  0  0
   -0.2210   -5.0132   37.8889 C   0  0  0  0  0  0  0  0  0  0  0  0
    0.3977   -5.6584   39.1366 C   0  0  0  0  0  0  0  0  0  0  0  0
   -0.1155   -4.8807   40.4168 C   0  0  0  0  0  0  0  0  0  0  0  0
   -1.2481   -5.2264   41.1788 C   0  0  0  0  0  0  0  0  0  0  0  0
   -1.3129   -4.2425   42.1302 C   0  0  0  0  0  0  0  0  0  0  0  0
   -0.3015   -3.3579   41.9436 O   0  0  0  0  0  0  0  0  0  0  0  0
    0.4518   -3.7479   40.8464 N   0  0  0  0  0  0  0  0  0  0  0  0
    0.3897   -7.2014   39.3186 C   0  0  0  0  0  0  0  0  0  0  0  0
    1.7874   -7.2481   38.8798 N   0  0  0  0  0  0  0  0  0  0  0  0
    1.9477   -5.8142   39.1451 C   0  0  0  0  0  0  0  0  0  0  0  0
   -0.1216   -4.4308   35.5065 N   0  0  0  0  0  0  0  0  0  0  0  0
    0.0093   -4.3916   34.1397 C   0  0  0  0  0  0  0  0  0  0  0  0
    0.2935   -3.1964   33.5942 C   0  0  0  0  0  0  0  0  0  0  0  0
    0.5931   -2.9959   32.2595 N   0  0  0  0  0  0  0  0  0  0  0  0
    0.8261   -1.6238   31.7967 C   0  0  0  0  0  0  0  0  0  0  0  0
   -0.4952   -0.8462   31.6677 C   0  0  0  0  0  0  0  0  0  0  0  0
   -0.8986   -0.6011   30.2424 C   0  0  0  0  0  0  0  0  0  0  0  0
   -1.3800   -1.6298   29.4480 C   0  0  0  0  0  0  0  0  0  0  0  0
   -1.7232   -1.3584   28.1340 C   0  0  0  0  0  0  0  0  0  0  0  0
   -1.6268   -0.0769   27.6011 C   0  0  0  0  0  0  0  0  0  0  0  0
   -1.1452    0.9828   28.3614 C   0  0  0  0  0  0  0  0  0  0  0  0
   -1.0985    2.3455   27.8091 C   0  0  0  0  0  0  0  0  0  0  0  0
   -0.3425    3.2631   28.4458 N   0  0  0  0  0  0  0  0  0  0  0  0
   -0.4630    4.5352   28.0047 C   0  0  0  0  0  0  0  0  0  0  0  0
   -1.3063    4.9111   26.9869 C   0  0  0  0  0  0  0  0  0  0  0  0
   -1.4653    6.2158   26.6470 O   0  0  0  0  0  0  0  0  0  0  0  0
   -1.9945    3.8934   26.3731 C   0  0  0  0  0  0  0  0  0  0  0  0
   -1.8945    2.6038   26.7459 N   0  0  0  0  0  0  0  0  0  0  0  0
   -0.7612    0.6817   29.6803 C   0  0  0  0  0  0  0  0  0  0  0  0
    0.7143   -4.0520   31.3676 C   0  0  0  0  0  0  0  0  0  0  0  0
    1.1351   -3.9531   30.2200 O   0  0  0  0  0  0  0  0  0  0  0  0
    0.2362   -5.3641   31.8693 C   0  0  0  0  0  0  0  0  0  0  0  0
    0.0728   -6.3859   30.9326 C   0  0  0  0  0  0  0  0  0  0  0  0
   -0.5580   -7.5653   31.2942 C   0  0  0  0  0  0  0  0  0  0  0  0
   -1.0472   -7.7166   32.5840 C   0  0  0  0  0  0  0  0  0  0  0  0
   -0.8436   -6.7104   33.5325 C   0  0  0  0  0  0  0  0  0  0  0  0
   -0.1682   -5.5249   33.2079 C   0  0  0  0  0  0  0  0  0  0  0  0
   -1.3119   -4.9876   37.9980 H   0  0  0  0  0  0  0  0  0  0  0  0
    0.1153   -3.9686   37.8762 H   0  0  0  0  0  0  0  0  0  0  0  0
   -1.9276   -6.0560   41.0556 H   0  0  0  0  0  0  0  0  0  0  0  0
   -1.9761   -4.0289   42.9549 H   0  0  0  0  0  0  0  0  0  0  0  0
    0.2543   -7.5595   40.3461 H   0  0  0  0  0  0  0  0  0  0  0  0
   -0.2871   -7.7592   38.6741 H   0  0  0  0  0  0  0  0  0  0  0  0
    2.3844   -7.8728   39.4210 H   0  0  0  0  0  0  0  0  0  0  0  0
    2.4878   -5.2707   38.3634 H   0  0  0  0  0  0  0  0  0  0  0  0
    2.4419   -5.6120   40.1032 H   0  0  0  0  0  0  0  0  0  0  0  0
   -0.1862   -3.5620   36.0225 H   0  0  0  0  0  0  0  0  0  0  0  0
    0.3633   -2.3075   34.2164 H   0  0  0  0  0  0  0  0  0  0  0  0
    1.3887   -1.6290   30.8560 H   0  0  0  0  0  0  0  0  0  0  0  0
    1.4694   -1.1343   32.5395 H   0  0  0  0  0  0  0  0  0  0  0  0
   -0.3728    0.1222   32.1704 H   0  0  0  0  0  0  0  0  0  0  0  0
   -1.3233   -1.3427   32.1892 H   0  0  0  0  0  0  0  0  0  0  0  0
   -1.4732   -2.6454   29.8192 H   0  0  0  0  0  0  0  0  0  0  0  0
   -2.0846   -2.1434   27.4888 H   0  0  0  0  0  0  0  0  0  0  0  0
   -1.9395    0.0744   26.5703 H   0  0  0  0  0  0  0  0  0  0  0  0
    0.1207    5.2740   28.5440 H   0  0  0  0  0  0  0  0  0  0  0  0
   -2.4165    6.3397   26.4278 H   0  0  0  0  0  0  0  0  0  0  0  0
   -2.6758    4.0841   25.5506 H   0  0  0  0  0  0  0  0  0  0  0  0
   -0.3434    1.4832   30.2884 H   0  0  0  0  0  0  0  0  0  0  0  0
    0.4179   -6.2398   29.9155 H   0  0  0  0  0  0  0  0  0  0  0  0
   -0.6456   -8.3703   30.5719 H   0  0  0  0  0  0  0  0  0  0  0  0
   -1.5806   -8.6207   32.8693 H   0  0  0  0  0  0  0  0  0  0  0  0
   -1.2697   -6.8589   34.5196 H   0  0  0  0  0  0  0  0  0  0  0  0
  1  2  2  0
  2  3  1  0
  3  4  1  0
  4  5  1  0
  5  6  1  0
  6  7  2  0
  7  8  1  0
  8  9  1  0
  4 10  1  0
 10 11  1  0
 11 12  1  0
  2 13  1  0
 13 14  1  0
 14 15  2  0
 15 16  1  0
 16 17  1  0
 17 18  1  0
 18 19  1  0
 19 20  2  0
 20 21  1  0
 21 22  2  0
 22 23  1  0
 23 24  1  0
 24 25  2  0
 25 26  1  0
 26 27  2  0
 27 28  1  0
 27 29  1  0
 29 30  2  0
 23 31  2  0
 16 32  1  0
 32 33  2  0
 32 34  1  0
 34 35  2  0
 35 36  1  0
 36 37  2  0
 37 38  1  0
 38 39  2  0
 12  4  1  0
 39 14  1  0
  9  5  2  0
 31 19  1  0
 39 34  1  0
 30 24  1  0
  3 40  1  0
  3 41  1  0
  6 42  1  0
  7 43  1  0
 10 44  1  0
 10 45  1  0
 11 46  1  0
 12 47  1  0
 12 48  1  0
 13 49  1  0
 15 50  1  0
 17 51  1  0
 17 52  1  0
 18 53  1  0
 18 54  1  0
 20 55  1  0
 21 56  1  0
 22 57  1  0
 26 58  1  0
 28 59  1  0
 29 60  1  0
 31 61  1  0
 35 62  1  0
 36 63  1  0
 37 64  1  0
 38 65  1  0
M  END
>  <Energy>  (1095) 
121.95452595390987

>  <compound_id>  (1095) 
4519

>  <target_id>  (1095) 
1

>  <reference_id>  (1095) 
159

>  <inspiration_ids>  (1095) 
[159, 187]

>  <energy_score>  (1095) 
-48.46522267740136

>  <distance_score>  (1095) 
1.6825652312641932

>  <path>  (1095) 
/opt/xchem-fragalysis-2/maxwin/BulkDock/SCRATCH/505735/C4519-P159/C4519-P159.minimised.mol

>  <scratch_subdir>  (1095) 
/opt/xchem-fragalysis-2/maxwin/BulkDock/SCRATCH/505735/C4519-P159

>  <fragmenstein_runtime>  (1095) 
9.171240329742432

>  <fragmenstein_outcome>  (1095) 
too moved

>  <fragmenstein_mode>  (1095) 
expansion

>  <fragmenstein_error>  (1095) 


$$$$
C4519-P187
     RDKit          3D

 65 70  0  0  0  0  0  0  0  0999 V2000
    1.9663   -7.3948   35.3035 O   0  0  0  0  0  0  0  0  0  0  0  0
    1.9663   -6.3116   35.7523 C   0  0  0  0  0  0  0  0  0  0  0  0
    2.4495   -6.0003   37.1655 C   0  0  0  0  0  0  0  0  0  0  0  0
    1.3202   -5.8479   38.1933 C   0  0  0  0  0  0  0  0  0  0  0  0
    0.3978   -4.6154   37.8873 C   0  0  0  0  0  0  0  0  0  0  0  0
   -0.8762   -4.6768   37.2930 C   0  0  0  0  0  0  0  0  0  0  0  0
   -1.2152   -3.3628   37.1066 C   0  0  0  0  0  0  0  0  0  0  0  0
   -0.2114   -2.5655   37.5492 O   0  0  0  0  0  0  0  0  0  0  0  0
    0.8265   -3.3553   38.0203 N   0  0  0  0  0  0  0  0  0  0  0  0
    0.5725   -7.1502   38.5918 C   0  0  0  0  0  0  0  0  0  0  0  0
    1.5239   -7.3174   39.7072 N   0  0  0  0  0  0  0  0  0  0  0  0
    1.7921   -5.8658   39.6787 C   0  0  0  0  0  0  0  0  0  0  0  0
    1.4766   -4.9573   35.1345 N   0  0  0  0  0  0  0  0  0  0  0  0
    1.0064   -4.6712   33.8814 C   0  0  0  0  0  0  0  0  0  0  0  0
    1.0722   -3.4051   33.4359 C   0  0  0  0  0  0  0  0  0  0  0  0
    0.9209   -3.0650   32.1010 N   0  0  0  0  0  0  0  0  0  0  0  0
    0.9769   -1.6541   31.7070 C   0  0  0  0  0  0  0  0  0  0  0  0
   -0.4304   -1.0329   31.6553 C   0  0  0  0  0  0  0  0  0  0  0  0
   -0.8672   -0.7023   30.2556 C   0  0  0  0  0  0  0  0  0  0  0  0
   -1.4383   -1.6703   29.4442 C   0  0  0  0  0  0  0  0  0  0  0  0
   -1.8089   -1.3378   28.1515 C   0  0  0  0  0  0  0  0  0  0  0  0
   -1.6234   -0.0555   27.6486 C   0  0  0  0  0  0  0  0  0  0  0  0
   -1.0463    0.9473   28.4225 C   0  0  0  0  0  0  0  0  0  0  0  0
   -0.9279    2.3197   27.8995 C   0  0  0  0  0  0  0  0  0  0  0  0
   -0.2722    3.2314   28.6467 N   0  0  0  0  0  0  0  0  0  0  0  0
   -0.3683    4.5155   28.2352 C   0  0  0  0  0  0  0  0  0  0  0  0
   -1.0898    4.9086   27.1338 C   0  0  0  0  0  0  0  0  0  0  0  0
   -1.2454    6.2211   26.8213 O   0  0  0  0  0  0  0  0  0  0  0  0
   -1.6721    3.8978   26.4088 C   0  0  0  0  0  0  0  0  0  0  0  0
   -1.5923    2.6007   26.7545 N   0  0  0  0  0  0  0  0  0  0  0  0
   -0.6563    0.5849   29.7263 C   0  0  0  0  0  0  0  0  0  0  0  0
    0.8237   -4.0389   31.1082 C   0  0  0  0  0  0  0  0  0  0  0  0
    0.9312   -3.8230   29.9066 O   0  0  0  0  0  0  0  0  0  0  0  0
    0.4943   -5.4021   31.5874 C   0  0  0  0  0  0  0  0  0  0  0  0
    0.0742   -6.3467   30.6549 C   0  0  0  0  0  0  0  0  0  0  0  0
   -0.4856   -7.5410   31.0806 C   0  0  0  0  0  0  0  0  0  0  0  0
   -0.6795   -7.7609   32.4362 C   0  0  0  0  0  0  0  0  0  0  0  0
   -0.1933   -6.8468   33.3723 C   0  0  0  0  0  0  0  0  0  0  0  0
    0.4595   -5.6773   32.9587 C   0  0  0  0  0  0  0  0  0  0  0  0
    3.0792   -5.1018   37.1408 H   0  0  0  0  0  0  0  0  0  0  0  0
    3.1265   -6.8163   37.4521 H   0  0  0  0  0  0  0  0  0  0  0  0
   -1.4427   -5.5447   36.9966 H   0  0  0  0  0  0  0  0  0  0  0  0
   -2.0654   -2.8534   36.6781 H   0  0  0  0  0  0  0  0  0  0  0  0
   -0.4540   -7.0029   38.9421 H   0  0  0  0  0  0  0  0  0  0  0  0
    0.5817   -7.9636   37.8612 H   0  0  0  0  0  0  0  0  0  0  0  0
    1.1146   -7.6749   40.5697 H   0  0  0  0  0  0  0  0  0  0  0  0
    2.8375   -5.5954   39.8564 H   0  0  0  0  0  0  0  0  0  0  0  0
    1.1650   -5.2994   40.3790 H   0  0  0  0  0  0  0  0  0  0  0  0
    1.7004   -4.1933   35.7680 H   0  0  0  0  0  0  0  0  0  0  0  0
    1.3730   -2.5946   34.0945 H   0  0  0  0  0  0  0  0  0  0  0  0
    1.4978   -1.5657   30.7459 H   0  0  0  0  0  0  0  0  0  0  0  0
    1.5875   -1.1133   32.4409 H   0  0  0  0  0  0  0  0  0  0  0  0
   -0.4284   -0.1069   32.2453 H   0  0  0  0  0  0  0  0  0  0  0  0
   -1.1800   -1.6790   32.1304 H   0  0  0  0  0  0  0  0  0  0  0  0
   -1.5872   -2.6887   29.7887 H   0  0  0  0  0  0  0  0  0  0  0  0
   -2.2631   -2.0731   27.5048 H   0  0  0  0  0  0  0  0  0  0  0  0
   -1.9537    0.1453   26.6321 H   0  0  0  0  0  0  0  0  0  0  0  0
    0.1277    5.2456   28.8670 H   0  0  0  0  0  0  0  0  0  0  0  0
   -2.1064    6.3082   26.3582 H   0  0  0  0  0  0  0  0  0  0  0  0
   -2.2558    4.1002   25.5167 H   0  0  0  0  0  0  0  0  0  0  0  0
   -0.1776    1.3396   30.3500 H   0  0  0  0  0  0  0  0  0  0  0  0
    0.1478   -6.1195   29.5998 H   0  0  0  0  0  0  0  0  0  0  0  0
   -0.7762   -8.2911   30.3554 H   0  0  0  0  0  0  0  0  0  0  0  0
   -1.1818   -8.6608   32.7765 H   0  0  0  0  0  0  0  0  0  0  0  0
   -0.3405   -7.0666   34.4265 H   0  0  0  0  0  0  0  0  0  0  0  0
  1  2  2  0
  2  3  1  0
  3  4  1  0
  4  5  1  0
  5  6  1  0
  6  7  2  0
  7  8  1  0
  8  9  1  0
  4 10  1  0
 10 11  1  0
 11 12  1  0
  2 13  1  0
 13 14  1  0
 14 15  2  0
 15 16  1  0
 16 17  1  0
 17 18  1  0
 18 19  1  0
 19 20  2  0
 20 21  1  0
 21 22  2  0
 22 23  1  0
 23 24  1  0
 24 25  2  0
 25 26  1  0
 26 27  2  0
 27 28  1  0
 27 29  1  0
 29 30  2  0
 23 31  2  0
 16 32  1  0
 32 33  2  0
 32 34  1  0
 34 35  2  0
 35 36  1  0
 36 37  2  0
 37 38  1  0
 38 39  2  0
 12  4  1  0
 39 14  1  0
  9  5  2  0
 31 19  1  0
 39 34  1  0
 30 24  1  0
  3 40  1  0
  3 41  1  0
  6 42  1  0
  7 43  1  0
 10 44  1  0
 10 45  1  0
 11 46  1  0
 12 47  1  0
 12 48  1  0
 13 49  1  0
 15 50  1  0
 17 51  1  0
 17 52  1  0
 18 53  1  0
 18 54  1  0
 20 55  1  0
 21 56  1  0
 22 57  1  0
 26 58  1  0
 28 59  1  0
 29 60  1  0
 31 61  1  0
 35 62  1  0
 36 63  1  0
 37 64  1  0
 38 65  1  0
M  END
>  <Energy>  (1096) 
115.16619479826376

>  <compound_id>  (1096) 
4519

>  <target_id>  (1096) 
1

>  <reference_id>  (1096) 
187

>  <inspiration_ids>  (1096) 
[159, 187]

>  <energy_score>  (1096) 
-55.25355383305069

>  <distance_score>  (1096) 
1.6438031602645393

>  <path>  (1096) 
/opt/xchem-fragalysis-2/maxwin/BulkDock/SCRATCH/505735/C4519-P187/C4519-P187.minimised.mol

>  <scratch_subdir>  (1096) 
/opt/xchem-fragalysis-2/maxwin/BulkDock/SCRATCH/505735/C4519-P187

>  <fragmenstein_runtime>  (1096) 
6.630687952041626

>  <fragmenstein_outcome>  (1096) 
too moved

>  <fragmenstein_mode>  (1096) 
expansion

>  <fragmenstein_error>  (1096) 


$$$$
C4520-P159
     RDKit          3D

 62 66  0  0  0  0  0  0  0  0999 V2000
   -1.1286   -2.6124   29.3035 N   0  0  0  0  0  0  0  0  0  0  0  0
   -0.8059   -2.9644   30.9072 S   0  0  0  0  0  0  0  0  0  0  0  0
   -1.9745   -3.6617   31.3922 O   0  0  0  0  0  0  0  0  0  0  0  0
    0.5096   -3.5635   30.9167 O   0  0  0  0  0  0  0  0  0  0  0  0
   -0.6838   -1.3840   31.6771 C   0  0  0  0  0  0  0  0  0  0  0  0
   -0.3171   -0.2884   30.8814 C   0  0  0  0  0  0  0  0  0  0  0  0
   -0.1459    0.9572   31.4660 C   0  0  0  0  0  0  0  0  0  0  0  0
   -0.3759    1.1116   32.8298 C   0  0  0  0  0  0  0  0  0  0  0  0
   -0.7657    0.0221   33.6191 C   0  0  0  0  0  0  0  0  0  0  0  0
   -0.8954   -1.2500   33.0601 C   0  0  0  0  0  0  0  0  0  0  0  0
   -1.2012   -2.3751   33.7694 O   0  0  0  0  0  0  0  0  0  0  0  0
   -1.1358   -2.3788   35.1985 C   0  0  0  0  0  0  0  0  0  0  0  0
   -2.3330   -1.9442   35.6806 F   0  0  0  0  0  0  0  0  0  0  0  0
   -0.9374   -3.7304   35.6702 O   0  0  0  0  0  0  0  0  0  0  0  0
   -0.7062   -3.7318   37.0693 N   0  0  0  0  0  0  0  0  0  0  0  0
   -0.0661   -4.8548   37.6271 C   0  0  0  0  0  0  0  0  0  0  0  0
   -0.5707   -5.3572   38.8027 N   0  0  0  0  0  0  0  0  0  0  0  0
   -0.1342   -6.4831   39.4521 C   0  0  0  0  0  0  0  0  0  0  0  0
   -0.6842   -6.8835   40.4713 O   0  0  0  0  0  0  0  0  0  0  0  0
    1.0469   -7.1615   38.8842 C   0  0  0  0  0  0  0  0  0  0  0  0
    1.5865   -8.2611   39.5680 C   0  0  0  0  0  0  0  0  0  0  0  0
    2.7905   -8.8126   39.1481 C   0  0  0  0  0  0  0  0  0  0  0  0
    3.4605   -8.2455   38.0711 C   0  0  0  0  0  0  0  0  0  0  0  0
    2.9034   -7.1568   37.3865 C   0  0  0  0  0  0  0  0  0  0  0  0
    1.6524   -6.6258   37.7368 C   0  0  0  0  0  0  0  0  0  0  0  0
    0.9980   -5.4827   37.0428 C   0  0  0  0  0  0  0  0  0  0  0  0
    1.4199   -4.9833   35.8341 N   0  0  0  0  0  0  0  0  0  0  0  0
    2.0273   -5.6333   34.7004 C   0  0  0  0  0  0  0  0  0  0  0  0
    2.3950   -6.7666   34.5490 O   0  0  0  0  0  0  0  0  0  0  0  0
    2.1903   -4.6336   33.5654 C   0  0  0  0  0  0  0  0  0  0  0  0
    3.4213   -3.7307   33.6855 C   0  0  0  0  0  0  0  0  0  0  0  0
    3.2716   -2.5913   34.7746 C   0  0  0  0  0  0  0  0  0  0  0  0
    4.3197   -1.9716   35.4864 C   0  0  0  0  0  0  0  0  0  0  0  0
    3.6829   -1.0667   36.2939 C   0  0  0  0  0  0  0  0  0  0  0  0
    2.3462   -1.1287   36.0799 O   0  0  0  0  0  0  0  0  0  0  0  0
    2.0809   -2.0862   35.1154 N   0  0  0  0  0  0  0  0  0  0  0  0
    4.7954   -4.4557   33.6864 C   0  0  0  0  0  0  0  0  0  0  0  0
    5.2856   -3.4769   32.6968 N   0  0  0  0  0  0  0  0  0  0  0  0
    3.8913   -3.1675   32.3149 C   0  0  0  0  0  0  0  0  0  0  0  0
   -2.0295   -2.9644   28.9565 H   0  0  0  0  0  0  0  0  0  0  0  0
   -0.3617   -2.8642   28.6829 H   0  0  0  0  0  0  0  0  0  0  0  0
   -0.1357   -0.3957   29.8148 H   0  0  0  0  0  0  0  0  0  0  0  0
    0.1668    1.8063   30.8615 H   0  0  0  0  0  0  0  0  0  0  0  0
   -0.2398    2.0876   33.2917 H   0  0  0  0  0  0  0  0  0  0  0  0
   -0.9431    0.2026   34.6757 H   0  0  0  0  0  0  0  0  0  0  0  0
   -0.3433   -1.7369   35.5893 H   0  0  0  0  0  0  0  0  0  0  0  0
   -1.5700   -3.5284   37.5728 H   0  0  0  0  0  0  0  0  0  0  0  0
   -1.3858   -4.9353   39.2307 H   0  0  0  0  0  0  0  0  0  0  0  0
    1.0780   -8.6772   40.4360 H   0  0  0  0  0  0  0  0  0  0  0  0
    3.2091   -9.6660   39.6752 H   0  0  0  0  0  0  0  0  0  0  0  0
    4.4216   -8.6465   37.7586 H   0  0  0  0  0  0  0  0  0  0  0  0
    3.4935   -6.7254   36.5857 H   0  0  0  0  0  0  0  0  0  0  0  0
    1.1630   -4.0327   35.5742 H   0  0  0  0  0  0  0  0  0  0  0  0
    2.2396   -5.2273   32.6438 H   0  0  0  0  0  0  0  0  0  0  0  0
    1.2713   -4.0449   33.4622 H   0  0  0  0  0  0  0  0  0  0  0  0
    5.3833   -2.1463   35.4202 H   0  0  0  0  0  0  0  0  0  0  0  0
    4.0092   -0.3448   37.0279 H   0  0  0  0  0  0  0  0  0  0  0  0
    4.7823   -5.4789   33.3051 H   0  0  0  0  0  0  0  0  0  0  0  0
    5.3510   -4.4702   34.6289 H   0  0  0  0  0  0  0  0  0  0  0  0
    5.8631   -3.8639   31.9507 H   0  0  0  0  0  0  0  0  0  0  0  0
    3.5528   -3.7308   31.4366 H   0  0  0  0  0  0  0  0  0  0  0  0
    3.6989   -2.1060   32.1288 H   0  0  0  0  0  0  0  0  0  0  0  0
  1  2  1  0
  2  3  2  0
  2  4  2  0
  2  5  1  0
  5  6  2  0
  6  7  1  0
  7  8  2  0
  8  9  1  0
  9 10  2  0
 10 11  1  0
 11 12  1  0
 12 13  1  0
 12 14  1  0
 14 15  1  0
 15 16  1  0
 16 17  1  0
 17 18  1  0
 18 19  2  0
 18 20  1  0
 20 21  2  0
 21 22  1  0
 22 23  2  0
 23 24  1  0
 24 25  2  0
 25 26  1  0
 26 27  1  0
 27 28  1  0
 28 29  2  0
 28 30  1  0
 30 31  1  0
 31 32  1  0
 32 33  1  0
 33 34  2  0
 34 35  1  0
 35 36  1  0
 31 37  1  0
 37 38  1  0
 38 39  1  0
 10  5  1  0
 26 16  2  0
 39 31  1  0
 25 20  1  0
 36 32  2  0
  1 40  1  0
  1 41  1  0
  6 42  1  0
  7 43  1  0
  8 44  1  0
  9 45  1  0
 12 46  1  0
 15 47  1  0
 17 48  1  0
 21 49  1  0
 22 50  1  0
 23 51  1  0
 24 52  1  0
 27 53  1  0
 30 54  1  0
 30 55  1  0
 33 56  1  0
 34 57  1  0
 37 58  1  0
 37 59  1  0
 38 60  1  0
 39 61  1  0
 39 62  1  0
M  END
>  <Energy>  (1097) 
-2.0001570452670352

>  <compound_id>  (1097) 
4520

>  <target_id>  (1097) 
1

>  <reference_id>  (1097) 
159

>  <inspiration_ids>  (1097) 
[159, 188]

>  <energy_score>  (1097) 
-98.1399284583861

>  <distance_score>  (1097) 
3.4049017479512655

>  <path>  (1097) 
/opt/xchem-fragalysis-2/maxwin/BulkDock/SCRATCH/505735/C4520-P159/C4520-P159.minimised.mol

>  <scratch_subdir>  (1097) 
/opt/xchem-fragalysis-2/maxwin/BulkDock/SCRATCH/505735/C4520-P159

>  <fragmenstein_runtime>  (1097) 
10.24936294555664

>  <fragmenstein_outcome>  (1097) 
too moved

>  <fragmenstein_mode>  (1097) 
expansion

>  <fragmenstein_error>  (1097) 


$$$$
C4520-P188
     RDKit          3D

 62 66  0  0  0  0  0  0  0  0999 V2000
   -0.5366   -3.7892   30.1065 N   0  0  0  0  0  0  0  0  0  0  0  0
   -1.2449   -3.0713   31.4368 S   0  0  0  0  0  0  0  0  0  0  0  0
   -2.6451   -3.3977   31.4560 O   0  0  0  0  0  0  0  0  0  0  0  0
   -0.3685   -3.4292   32.5176 O   0  0  0  0  0  0  0  0  0  0  0  0
   -1.0704   -1.3846   31.0701 C   0  0  0  0  0  0  0  0  0  0  0  0
   -1.3943   -1.0427   29.7280 C   0  0  0  0  0  0  0  0  0  0  0  0
   -1.0561    0.1898   29.2069 C   0  0  0  0  0  0  0  0  0  0  0  0
   -0.3811    1.0709   30.0314 C   0  0  0  0  0  0  0  0  0  0  0  0
   -0.1159    0.7437   31.3821 C   0  0  0  0  0  0  0  0  0  0  0  0
   -0.4763   -0.4899   31.9542 C   0  0  0  0  0  0  0  0  0  0  0  0
   -0.0214   -0.6855   33.2415 O   0  0  0  0  0  0  0  0  0  0  0  0
   -0.7063   -1.4095   34.3215 C   0  0  0  0  0  0  0  0  0  0  0  0
   -1.9186   -1.8464   33.8989 F   0  0  0  0  0  0  0  0  0  0  0  0
    0.0741   -2.5347   34.8814 O   0  0  0  0  0  0  0  0  0  0  0  0
   -0.6729   -3.2662   35.8827 N   0  0  0  0  0  0  0  0  0  0  0  0
   -0.0694   -4.3571   36.6046 C   0  0  0  0  0  0  0  0  0  0  0  0
   -0.6570   -4.7349   37.7973 N   0  0  0  0  0  0  0  0  0  0  0  0
   -0.2761   -5.7642   38.6211 C   0  0  0  0  0  0  0  0  0  0  0  0
   -0.8708   -6.0034   39.6657 O   0  0  0  0  0  0  0  0  0  0  0  0
    0.9255   -6.5255   38.2299 C   0  0  0  0  0  0  0  0  0  0  0  0
    1.4195   -7.5124   39.0964 C   0  0  0  0  0  0  0  0  0  0  0  0
    2.6571   -8.0910   38.8468 C   0  0  0  0  0  0  0  0  0  0  0  0
    3.4033   -7.6527   37.7605 C   0  0  0  0  0  0  0  0  0  0  0  0
    2.8895   -6.6727   36.8998 C   0  0  0  0  0  0  0  0  0  0  0  0
    1.6060   -6.1324   37.0704 C   0  0  0  0  0  0  0  0  0  0  0  0
    0.9989   -5.0922   36.1729 C   0  0  0  0  0  0  0  0  0  0  0  0
    1.4453   -4.8669   34.8943 N   0  0  0  0  0  0  0  0  0  0  0  0
    2.2138   -5.8015   33.9109 C   0  0  0  0  0  0  0  0  0  0  0  0
    2.6495   -6.8765   34.0704 O   0  0  0  0  0  0  0  0  0  0  0  0
    2.4319   -5.0232   32.6304 C   0  0  0  0  0  0  0  0  0  0  0  0
    3.4560   -3.8926   32.7070 C   0  0  0  0  0  0  0  0  0  0  0  0
    4.7834   -4.2770   33.4669 C   0  0  0  0  0  0  0  0  0  0  0  0
    5.0383   -4.0394   34.8330 C   0  0  0  0  0  0  0  0  0  0  0  0
    6.2888   -4.5646   35.0285 C   0  0  0  0  0  0  0  0  0  0  0  0
    6.7514   -5.0870   33.8659 O   0  0  0  0  0  0  0  0  0  0  0  0
    5.8002   -4.9112   32.8745 N   0  0  0  0  0  0  0  0  0  0  0  0
    3.7221   -3.2121   31.3272 C   0  0  0  0  0  0  0  0  0  0  0  0
    3.6656   -1.8990   31.9977 N   0  0  0  0  0  0  0  0  0  0  0  0
    2.8728   -2.5037   33.0817 C   0  0  0  0  0  0  0  0  0  0  0  0
   -1.1875   -4.1211   29.3924 H   0  0  0  0  0  0  0  0  0  0  0  0
    0.2198   -4.4235   30.3457 H   0  0  0  0  0  0  0  0  0  0  0  0
   -1.8593   -1.7664   29.0581 H   0  0  0  0  0  0  0  0  0  0  0  0
   -1.2788    0.4422   28.1730 H   0  0  0  0  0  0  0  0  0  0  0  0
   -0.0589    2.0342   29.6374 H   0  0  0  0  0  0  0  0  0  0  0  0
    0.4213    1.4723   31.9896 H   0  0  0  0  0  0  0  0  0  0  0  0
   -0.8661   -0.6893   35.1302 H   0  0  0  0  0  0  0  0  0  0  0  0
   -1.5625   -3.6019   35.4812 H   0  0  0  0  0  0  0  0  0  0  0  0
   -1.4511   -4.2017   38.1269 H   0  0  0  0  0  0  0  0  0  0  0  0
    0.8491   -7.8081   39.9739 H   0  0  0  0  0  0  0  0  0  0  0  0
    3.0463   -8.8560   39.5118 H   0  0  0  0  0  0  0  0  0  0  0  0
    4.3913   -8.0669   37.5750 H   0  0  0  0  0  0  0  0  0  0  0  0
    3.5407   -6.3328   36.1027 H   0  0  0  0  0  0  0  0  0  0  0  0
    1.1379   -4.0306   34.3998 H   0  0  0  0  0  0  0  0  0  0  0  0
    2.7226   -5.7417   31.8651 H   0  0  0  0  0  0  0  0  0  0  0  0
    1.4707   -4.6715   32.2689 H   0  0  0  0  0  0  0  0  0  0  0  0
    4.4121   -3.5626   35.5716 H   0  0  0  0  0  0  0  0  0  0  0  0
    6.9529   -4.6485   35.8756 H   0  0  0  0  0  0  0  0  0  0  0  0
    2.9232   -3.3533   30.5874 H   0  0  0  0  0  0  0  0  0  0  0  0
    4.6754   -3.4277   30.8356 H   0  0  0  0  0  0  0  0  0  0  0  0
    3.1993   -1.1598   31.4723 H   0  0  0  0  0  0  0  0  0  0  0  0
    1.8042   -2.3978   32.9084 H   0  0  0  0  0  0  0  0  0  0  0  0
    3.0941   -2.1101   34.0772 H   0  0  0  0  0  0  0  0  0  0  0  0
  1  2  1  0
  2  3  2  0
  2  4  2  0
  2  5  1  0
  5  6  2  0
  6  7  1  0
  7  8  2  0
  8  9  1  0
  9 10  2  0
 10 11  1  0
 11 12  1  0
 12 13  1  0
 12 14  1  0
 14 15  1  0
 15 16  1  0
 16 17  1  0
 17 18  1  0
 18 19  2  0
 18 20  1  0
 20 21  2  0
 21 22  1  0
 22 23  2  0
 23 24  1  0
 24 25  2  0
 25 26  1  0
 26 27  1  0
 27 28  1  0
 28 29  2  0
 28 30  1  0
 30 31  1  0
 31 32  1  0
 32 33  1  0
 33 34  2  0
 34 35  1  0
 35 36  1  0
 31 37  1  0
 37 38  1  0
 38 39  1  0
 10  5  1  0
 26 16  2  0
 39 31  1  0
 25 20  1  0
 36 32  2  0
  1 40  1  0
  1 41  1  0
  6 42  1  0
  7 43  1  0
  8 44  1  0
  9 45  1  0
 12 46  1  0
 15 47  1  0
 17 48  1  0
 21 49  1  0
 22 50  1  0
 23 51  1  0
 24 52  1  0
 27 53  1  0
 30 54  1  0
 30 55  1  0
 33 56  1  0
 34 57  1  0
 37 58  1  0
 37 59  1  0
 38 60  1  0
 39 61  1  0
 39 62  1  0
M  END
>  <Energy>  (1098) 
36.206888476872045

>  <compound_id>  (1098) 
4520

>  <target_id>  (1098) 
1

>  <reference_id>  (1098) 
188

>  <inspiration_ids>  (1098) 
[159, 188]

>  <energy_score>  (1098) 
-73.87836813017277

>  <distance_score>  (1098) 
2.8579555170956548

>  <path>  (1098) 
/opt/xchem-fragalysis-2/maxwin/BulkDock/SCRATCH/505735/C4520-P188/C4520-P188.minimised.mol

>  <scratch_subdir>  (1098) 
/opt/xchem-fragalysis-2/maxwin/BulkDock/SCRATCH/505735/C4520-P188

>  <fragmenstein_runtime>  (1098) 
8.060555934906006

>  <fragmenstein_outcome>  (1098) 
too moved

>  <fragmenstein_mode>  (1098) 
expansion

>  <fragmenstein_error>  (1098) 


$$$$
C4521-P159
     RDKit          3D

 64 68  0  0  0  0  0  0  0  0999 V2000
    2.9634    1.9530   33.6653 C   0  0  0  0  0  0  0  0  0  0  0  0
    2.1557    1.2729   32.5830 C   0  0  0  0  0  0  0  0  0  0  0  0
    2.3644    1.5461   31.4358 O   0  0  0  0  0  0  0  0  0  0  0  0
    1.2105    0.3572   33.1778 N   0  0  0  0  0  0  0  0  0  0  0  0
    0.1916   -0.4177   32.5999 C   0  0  0  0  0  0  0  0  0  0  0  0
   -0.0476   -0.3440   31.2211 C   0  0  0  0  0  0  0  0  0  0  0  0
   -1.0539   -0.9776   30.5789 N   0  0  0  0  0  0  0  0  0  0  0  0
   -1.8629   -1.7316   31.3348 C   0  0  0  0  0  0  0  0  0  0  0  0
   -1.7060   -1.8899   32.7053 C   0  0  0  0  0  0  0  0  0  0  0  0
   -0.6449   -1.2520   33.3711 C   0  0  0  0  0  0  0  0  0  0  0  0
   -0.4725   -1.4136   34.8759 C   0  0  0  0  0  0  0  0  0  0  0  0
   -0.8740   -2.7380   35.5783 C   0  0  0  0  0  0  0  0  0  0  0  0
    0.1180   -3.8182   35.4519 N   0  0  0  0  0  0  0  0  0  0  0  0
    0.5616   -4.1966   34.2011 C   0  0  0  0  0  0  0  0  0  0  0  0
   -0.3360   -4.9656   33.5142 N   0  0  0  0  0  0  0  0  0  0  0  0
   -0.2097   -5.4106   32.2336 C   0  0  0  0  0  0  0  0  0  0  0  0
   -1.0335   -6.1650   31.7271 O   0  0  0  0  0  0  0  0  0  0  0  0
    0.9615   -4.8934   31.4991 C   0  0  0  0  0  0  0  0  0  0  0  0
    1.0597   -5.1553   30.1317 C   0  0  0  0  0  0  0  0  0  0  0  0
    2.1263   -4.6541   29.3943 C   0  0  0  0  0  0  0  0  0  0  0  0
    3.0926   -3.8856   30.0283 C   0  0  0  0  0  0  0  0  0  0  0  0
    2.9925   -3.6205   31.3994 C   0  0  0  0  0  0  0  0  0  0  0  0
    1.9198   -4.1166   32.1682 C   0  0  0  0  0  0  0  0  0  0  0  0
    1.7372   -3.8212   33.6240 C   0  0  0  0  0  0  0  0  0  0  0  0
    2.7253   -3.0766   34.2451 N   0  0  0  0  0  0  0  0  0  0  0  0
    2.9537   -2.7797   35.6413 C   0  0  0  0  0  0  0  0  0  0  0  0
    2.3904   -3.1679   36.6270 O   0  0  0  0  0  0  0  0  0  0  0  0
    4.0797   -1.7606   35.7558 C   0  0  0  0  0  0  0  0  0  0  0  0
    4.0633   -0.9832   37.0827 C   0  0  0  0  0  0  0  0  0  0  0  0
    2.6914   -0.2576   37.3476 C   0  0  0  0  0  0  0  0  0  0  0  0
    1.8335   -0.4780   38.4435 C   0  0  0  0  0  0  0  0  0  0  0  0
    0.7781    0.3636   38.2103 C   0  0  0  0  0  0  0  0  0  0  0  0
    0.9735    1.0271   37.0442 O   0  0  0  0  0  0  0  0  0  0  0  0
    2.1760    0.6265   36.4853 N   0  0  0  0  0  0  0  0  0  0  0  0
    5.2788   -0.0278   37.2601 C   0  0  0  0  0  0  0  0  0  0  0  0
    5.9994   -1.1405   37.9173 N   0  0  0  0  0  0  0  0  0  0  0  0
    4.6925   -1.7252   38.2977 C   0  0  0  0  0  0  0  0  0  0  0  0
    2.2995    2.4553   34.3732 H   0  0  0  0  0  0  0  0  0  0  0  0
    3.6115    2.7103   33.2138 H   0  0  0  0  0  0  0  0  0  0  0  0
    3.5940    1.2211   34.1742 H   0  0  0  0  0  0  0  0  0  0  0  0
    1.2566    0.4436   34.1897 H   0  0  0  0  0  0  0  0  0  0  0  0
    0.5641    0.2659   30.5621 H   0  0  0  0  0  0  0  0  0  0  0  0
   -2.6667   -2.2236   30.7961 H   0  0  0  0  0  0  0  0  0  0  0  0
   -2.4150   -2.5183   33.2319 H   0  0  0  0  0  0  0  0  0  0  0  0
   -1.0652   -0.6084   35.3308 H   0  0  0  0  0  0  0  0  0  0  0  0
    0.5699   -1.2242   35.1424 H   0  0  0  0  0  0  0  0  0  0  0  0
   -0.9675   -2.5291   36.6512 H   0  0  0  0  0  0  0  0  0  0  0  0
   -1.8565   -3.0818   35.2586 H   0  0  0  0  0  0  0  0  0  0  0  0
    0.9146   -3.6063   36.0641 H   0  0  0  0  0  0  0  0  0  0  0  0
   -1.1792   -5.2140   34.0181 H   0  0  0  0  0  0  0  0  0  0  0  0
    0.2793   -5.7301   29.6483 H   0  0  0  0  0  0  0  0  0  0  0  0
    2.1949   -4.8477   28.3280 H   0  0  0  0  0  0  0  0  0  0  0  0
    3.9209   -3.4756   29.4541 H   0  0  0  0  0  0  0  0  0  0  0  0
    3.7744   -2.9993   31.8215 H   0  0  0  0  0  0  0  0  0  0  0  0
    3.4453   -2.6351   33.6925 H   0  0  0  0  0  0  0  0  0  0  0  0
    4.0031   -1.0457   34.9276 H   0  0  0  0  0  0  0  0  0  0  0  0
    5.0229   -2.3052   35.6258 H   0  0  0  0  0  0  0  0  0  0  0  0
    1.9524   -1.1496   39.2803 H   0  0  0  0  0  0  0  0  0  0  0  0
   -0.1375    0.5934   38.7350 H   0  0  0  0  0  0  0  0  0  0  0  0
    5.7480    0.3353   36.3408 H   0  0  0  0  0  0  0  0  0  0  0  0
    5.1091    0.8293   37.9241 H   0  0  0  0  0  0  0  0  0  0  0  0
    6.5941   -0.8670   38.7001 H   0  0  0  0  0  0  0  0  0  0  0  0
    4.3587   -1.3992   39.2899 H   0  0  0  0  0  0  0  0  0  0  0  0
    4.6646   -2.8181   38.2681 H   0  0  0  0  0  0  0  0  0  0  0  0
  1  2  1  0
  2  3  2  0
  2  4  1  0
  4  5  1  0
  5  6  2  0
  6  7  1  0
  7  8  2  0
  8  9  1  0
  9 10  2  0
 10 11  1  0
 11 12  1  0
 12 13  1  0
 13 14  1  0
 14 15  1  0
 15 16  1  0
 16 17  2  0
 16 18  1  0
 18 19  2  0
 19 20  1  0
 20 21  2  0
 21 22  1  0
 22 23  2  0
 23 24  1  0
 24 25  1  0
 25 26  1  0
 26 27  2  0
 26 28  1  0
 28 29  1  0
 29 30  1  0
 30 31  1  0
 31 32  2  0
 32 33  1  0
 33 34  1  0
 29 35  1  0
 35 36  1  0
 36 37  1  0
 10  5  1  0
 24 14  2  0
 37 29  1  0
 23 18  1  0
 34 30  2  0
  1 38  1  0
  1 39  1  0
  1 40  1  0
  4 41  1  0
  6 42  1  0
  8 43  1  0
  9 44  1  0
 11 45  1  0
 11 46  1  0
 12 47  1  0
 12 48  1  0
 13 49  1  0
 15 50  1  0
 19 51  1  0
 20 52  1  0
 21 53  1  0
 22 54  1  0
 25 55  1  0
 28 56  1  0
 28 57  1  0
 31 58  1  0
 32 59  1  0
 35 60  1  0
 35 61  1  0
 36 62  1  0
 37 63  1  0
 37 64  1  0
M  END
>  <Energy>  (1099) 
30.595368682102674

>  <compound_id>  (1099) 
4521

>  <target_id>  (1099) 
1

>  <reference_id>  (1099) 
159

>  <inspiration_ids>  (1099) 
[159, 189]

>  <energy_score>  (1099) 
-89.11332836643004

>  <distance_score>  (1099) 
3.5224282025636064

>  <path>  (1099) 
/opt/xchem-fragalysis-2/maxwin/BulkDock/SCRATCH/505735/C4521-P159/C4521-P159.minimised.mol

>  <scratch_subdir>  (1099) 
/opt/xchem-fragalysis-2/maxwin/BulkDock/SCRATCH/505735/C4521-P159

>  <fragmenstein_runtime>  (1099) 
37.29814624786377

>  <fragmenstein_outcome>  (1099) 
too moved

>  <fragmenstein_mode>  (1099) 
expansion

>  <fragmenstein_error>  (1099) 


$$$$
C4521-P189
     RDKit          3D

 64 68  0  0  0  0  0  0  0  0999 V2000
   -0.0931   -2.6050   29.3979 C   0  0  0  0  0  0  0  0  0  0  0  0
   -1.0929   -1.6606   30.0201 C   0  0  0  0  0  0  0  0  0  0  0  0
   -1.8393   -1.0441   29.3172 O   0  0  0  0  0  0  0  0  0  0  0  0
   -0.9688   -1.6999   31.4595 N   0  0  0  0  0  0  0  0  0  0  0  0
   -1.6180   -0.9645   32.4541 C   0  0  0  0  0  0  0  0  0  0  0  0
   -2.6782   -0.1303   32.0962 C   0  0  0  0  0  0  0  0  0  0  0  0
   -3.3818    0.6527   32.9546 N   0  0  0  0  0  0  0  0  0  0  0  0
   -2.9919    0.6143   34.2388 C   0  0  0  0  0  0  0  0  0  0  0  0
   -1.9547   -0.1780   34.7015 C   0  0  0  0  0  0  0  0  0  0  0  0
   -1.2525   -1.0028   33.8067 C   0  0  0  0  0  0  0  0  0  0  0  0
   -0.1708   -1.8902   34.3810 C   0  0  0  0  0  0  0  0  0  0  0  0
   -0.7620   -3.0407   35.2253 C   0  0  0  0  0  0  0  0  0  0  0  0
    0.1223   -4.2239   35.3114 N   0  0  0  0  0  0  0  0  0  0  0  0
    0.4937   -4.7996   34.0996 C   0  0  0  0  0  0  0  0  0  0  0  0
   -0.4332   -5.5242   33.4035 N   0  0  0  0  0  0  0  0  0  0  0  0
   -0.2135   -6.1128   32.1848 C   0  0  0  0  0  0  0  0  0  0  0  0
   -1.0302   -6.8663   31.6682 O   0  0  0  0  0  0  0  0  0  0  0  0
    1.0314   -5.6978   31.4987 C   0  0  0  0  0  0  0  0  0  0  0  0
    1.1635   -5.9659   30.1370 C   0  0  0  0  0  0  0  0  0  0  0  0
    2.2232   -5.4260   29.4128 C   0  0  0  0  0  0  0  0  0  0  0  0
    3.1283   -4.5890   30.0518 C   0  0  0  0  0  0  0  0  0  0  0  0
    2.9933   -4.3266   31.4194 C   0  0  0  0  0  0  0  0  0  0  0  0
    1.9749   -4.9199   32.1816 C   0  0  0  0  0  0  0  0  0  0  0  0
    1.7448   -4.6230   33.6073 C   0  0  0  0  0  0  0  0  0  0  0  0
    2.6840   -4.0996   34.4579 N   0  0  0  0  0  0  0  0  0  0  0  0
    4.1274   -4.1731   34.4393 C   0  0  0  0  0  0  0  0  0  0  0  0
    4.8776   -4.6445   33.6306 O   0  0  0  0  0  0  0  0  0  0  0  0
    4.7055   -3.5031   35.6813 C   0  0  0  0  0  0  0  0  0  0  0  0
    5.0729   -2.0205   35.5341 C   0  0  0  0  0  0  0  0  0  0  0  0
    5.9708   -1.5530   36.7387 C   0  0  0  0  0  0  0  0  0  0  0  0
    5.4870   -1.1394   37.9963 C   0  0  0  0  0  0  0  0  0  0  0  0
    6.6263   -0.8640   38.7075 C   0  0  0  0  0  0  0  0  0  0  0  0
    7.7160   -1.1051   37.9363 O   0  0  0  0  0  0  0  0  0  0  0  0
    7.3056   -1.5515   36.6902 N   0  0  0  0  0  0  0  0  0  0  0  0
    3.9058   -1.0290   35.2378 C   0  0  0  0  0  0  0  0  0  0  0  0
    4.2012   -1.1667   33.7985 N   0  0  0  0  0  0  0  0  0  0  0  0
    5.5992   -1.5302   34.1489 C   0  0  0  0  0  0  0  0  0  0  0  0
    0.0675   -2.3218   28.3551 H   0  0  0  0  0  0  0  0  0  0  0  0
   -0.4892   -3.6217   29.4388 H   0  0  0  0  0  0  0  0  0  0  0  0
    0.8711   -2.5441   29.9071 H   0  0  0  0  0  0  0  0  0  0  0  0
   -0.1713   -2.2712   31.7066 H   0  0  0  0  0  0  0  0  0  0  0  0
   -3.0094   -0.0469   31.0655 H   0  0  0  0  0  0  0  0  0  0  0  0
   -3.5525    1.2504   34.9186 H   0  0  0  0  0  0  0  0  0  0  0  0
   -1.7061   -0.1553   35.7589 H   0  0  0  0  0  0  0  0  0  0  0  0
    0.4856   -1.2828   35.0180 H   0  0  0  0  0  0  0  0  0  0  0  0
    0.4795   -2.2412   33.5802 H   0  0  0  0  0  0  0  0  0  0  0  0
   -0.9597   -2.6858   36.2436 H   0  0  0  0  0  0  0  0  0  0  0  0
   -1.7237   -3.3503   34.8111 H   0  0  0  0  0  0  0  0  0  0  0  0
   -0.3898   -4.9298   35.8439 H   0  0  0  0  0  0  0  0  0  0  0  0
   -1.3472   -5.6720   33.8126 H   0  0  0  0  0  0  0  0  0  0  0  0
    0.4173   -6.5836   29.6558 H   0  0  0  0  0  0  0  0  0  0  0  0
    2.3346   -5.6387   28.3534 H   0  0  0  0  0  0  0  0  0  0  0  0
    3.9451   -4.1360   29.4939 H   0  0  0  0  0  0  0  0  0  0  0  0
    3.6969   -3.6283   31.8660 H   0  0  0  0  0  0  0  0  0  0  0  0
    2.3835   -3.7042   35.3421 H   0  0  0  0  0  0  0  0  0  0  0  0
    5.6059   -4.0816   35.9335 H   0  0  0  0  0  0  0  0  0  0  0  0
    4.0298   -3.6447   36.5343 H   0  0  0  0  0  0  0  0  0  0  0  0
    4.4686   -1.0520   38.3418 H   0  0  0  0  0  0  0  0  0  0  0  0
    6.8323   -0.5147   39.7085 H   0  0  0  0  0  0  0  0  0  0  0  0
    2.9060   -1.3583   35.5331 H   0  0  0  0  0  0  0  0  0  0  0  0
    4.0492   -0.0053   35.6070 H   0  0  0  0  0  0  0  0  0  0  0  0
    4.1233   -0.3072   33.2527 H   0  0  0  0  0  0  0  0  0  0  0  0
    6.2678   -0.6600   34.1799 H   0  0  0  0  0  0  0  0  0  0  0  0
    6.0543   -2.2805   33.4968 H   0  0  0  0  0  0  0  0  0  0  0  0
  1  2  1  0
  2  3  2  0
  2  4  1  0
  4  5  1  0
  5  6  2  0
  6  7  1  0
  7  8  2  0
  8  9  1  0
  9 10  2  0
 10 11  1  0
 11 12  1  0
 12 13  1  0
 13 14  1  0
 14 15  1  0
 15 16  1  0
 16 17  2  0
 16 18  1  0
 18 19  2  0
 19 20  1  0
 20 21  2  0
 21 22  1  0
 22 23  2  0
 23 24  1  0
 24 25  1  0
 25 26  1  0
 26 27  2  0
 26 28  1  0
 28 29  1  0
 29 30  1  0
 30 31  1  0
 31 32  2  0
 32 33  1  0
 33 34  1  0
 29 35  1  0
 35 36  1  0
 36 37  1  0
 10  5  1  0
 24 14  2  0
 37 29  1  0
 23 18  1  0
 34 30  2  0
  1 38  1  0
  1 39  1  0
  1 40  1  0
  4 41  1  0
  6 42  1  0
  8 43  1  0
  9 44  1  0
 11 45  1  0
 11 46  1  0
 12 47  1  0
 12 48  1  0
 13 49  1  0
 15 50  1  0
 19 51  1  0
 20 52  1  0
 21 53  1  0
 22 54  1  0
 25 55  1  0
 28 56  1  0
 28 57  1  0
 31 58  1  0
 32 59  1  0
 35 60  1  0
 35 61  1  0
 36 62  1  0
 37 63  1  0
 37 64  1  0
M  END
>  <Energy>  (1100) 
49.646848374093494

>  <compound_id>  (1100) 
4521

>  <target_id>  (1100) 
1

>  <reference_id>  (1100) 
189

>  <inspiration_ids>  (1100) 
[159, 189]

>  <energy_score>  (1100) 
-70.06184867443773

>  <distance_score>  (1100) 
3.3553383202002025

>  <path>  (1100) 
/opt/xchem-fragalysis-2/maxwin/BulkDock/SCRATCH/505735/C4521-P189/C4521-P189.minimised.mol

>  <scratch_subdir>  (1100) 
/opt/xchem-fragalysis-2/maxwin/BulkDock/SCRATCH/505735/C4521-P189

>  <fragmenstein_runtime>  (1100) 
22.90201759338379

>  <fragmenstein_outcome>  (1100) 
too moved

>  <fragmenstein_mode>  (1100) 
expansion

>  <fragmenstein_error>  (1100) 


$$$$
C4522-P159
     RDKit          3D

 65 70  0  0  0  0  0  0  0  0999 V2000
    2.3971   -2.2698   34.8991 O   0  0  0  0  0  0  0  0  0  0  0  0
    2.3490   -3.2727   35.5519 C   0  0  0  0  0  0  0  0  0  0  0  0
    2.6394   -3.2233   37.0528 C   0  0  0  0  0  0  0  0  0  0  0  0
    1.4955   -2.5764   37.8421 C   0  0  0  0  0  0  0  0  0  0  0  0
    1.5986   -1.0020   37.8298 C   0  0  0  0  0  0  0  0  0  0  0  0
    0.9433   -0.1441   36.9254 C   0  0  0  0  0  0  0  0  0  0  0  0
    1.3836    1.1034   37.2821 C   0  0  0  0  0  0  0  0  0  0  0  0
    2.2524    1.0032   38.3188 O   0  0  0  0  0  0  0  0  0  0  0  0
    2.4060   -0.3317   38.6602 N   0  0  0  0  0  0  0  0  0  0  0  0
    0.0629   -3.1494   37.5875 C   0  0  0  0  0  0  0  0  0  0  0  0
   -0.1778   -3.1268   39.0377 N   0  0  0  0  0  0  0  0  0  0  0  0
    1.2779   -3.1614   39.2772 C   0  0  0  0  0  0  0  0  0  0  0  0
    1.9529   -4.6198   35.1902 N   0  0  0  0  0  0  0  0  0  0  0  0
    1.4313   -5.1239   34.0227 C   0  0  0  0  0  0  0  0  0  0  0  0
    0.6045   -6.1742   34.1678 C   0  0  0  0  0  0  0  0  0  0  0  0
   -0.1919   -6.6774   33.1606 N   0  0  0  0  0  0  0  0  0  0  0  0
   -1.2297   -7.6719   33.4080 C   0  0  0  0  0  0  0  0  0  0  0  0
   -1.7102   -7.7618   34.8427 C   0  0  0  0  0  0  0  0  0  0  0  0
   -2.9205   -8.5784   34.9658 C   0  0  0  0  0  0  0  0  0  0  0  0
   -4.1840   -8.2619   35.0044 C   0  0  0  0  0  0  0  0  0  0  0  0
   -4.9482   -8.6592   36.1199 C   0  0  0  0  0  0  0  0  0  0  0  0
   -4.9840   -9.9523   36.2669 C   0  0  0  0  0  0  0  0  0  0  0  0
   -3.7494  -10.1759   36.5814 C   0  0  0  0  0  0  0  0  0  0  0  0
   -3.0110   -9.7390   35.5820 C   0  0  0  0  0  0  0  0  0  0  0  0
   -3.3512  -10.9006   34.7960 C   0  0  0  0  0  0  0  0  0  0  0  0
   -4.5880  -11.7514   33.5489 N   0  0  0  0  0  0  0  0  0  0  0  0
   -3.8315  -13.7171   33.3292 C   0  0  0  0  0  0  0  0  0  0  0  0
   -2.0480  -14.0501   33.9205 C   0  0  0  0  0  0  0  0  0  0  0  0
   -0.9518  -14.9520   33.6426 C   0  0  0  0  0  0  0  0  0  0  0  0
    0.1074  -15.0743   34.2394 O   0  0  0  0  0  0  0  0  0  0  0  0
   -1.1602  -15.6639   32.5004 O   0  0  0  0  0  0  0  0  0  0  0  0
   -1.5230  -12.3994   35.6553 S   0  0  0  0  0  0  0  0  0  0  0  0
   -0.1310   -6.1892   31.8623 C   0  0  0  0  0  0  0  0  0  0  0  0
   -0.7991   -6.6579   30.9455 O   0  0  0  0  0  0  0  0  0  0  0  0
    0.7928   -5.0638   31.6196 C   0  0  0  0  0  0  0  0  0  0  0  0
    0.8669   -4.5531   30.3172 C   0  0  0  0  0  0  0  0  0  0  0  0
    1.7973   -3.5718   30.0143 C   0  0  0  0  0  0  0  0  0  0  0  0
    2.6639   -3.1273   31.0050 C   0  0  0  0  0  0  0  0  0  0  0  0
    2.5737   -3.6297   32.3094 C   0  0  0  0  0  0  0  0  0  0  0  0
    1.5990   -4.5678   32.6627 C   0  0  0  0  0  0  0  0  0  0  0  0
    3.5794   -2.6741   37.1928 H   0  0  0  0  0  0  0  0  0  0  0  0
    2.8484   -4.2302   37.4329 H   0  0  0  0  0  0  0  0  0  0  0  0
    0.2658   -0.3899   36.1221 H   0  0  0  0  0  0  0  0  0  0  0  0
    1.2001    2.1041   36.9210 H   0  0  0  0  0  0  0  0  0  0  0  0
   -0.6288   -2.5349   37.0045 H   0  0  0  0  0  0  0  0  0  0  0  0
    0.0368   -4.1648   37.1739 H   0  0  0  0  0  0  0  0  0  0  0  0
   -0.7155   -3.9017   39.4256 H   0  0  0  0  0  0  0  0  0  0  0  0
    1.6642   -4.1780   39.4238 H   0  0  0  0  0  0  0  0  0  0  0  0
    1.6102   -2.5517   40.1227 H   0  0  0  0  0  0  0  0  0  0  0  0
    1.9563   -5.1999   36.0202 H   0  0  0  0  0  0  0  0  0  0  0  0
    0.4646   -6.6034   35.1532 H   0  0  0  0  0  0  0  0  0  0  0  0
   -0.8583   -8.6308   33.0486 H   0  0  0  0  0  0  0  0  0  0  0  0
   -2.0839   -7.4497   32.7617 H   0  0  0  0  0  0  0  0  0  0  0  0
   -0.9229   -8.1987   35.4711 H   0  0  0  0  0  0  0  0  0  0  0  0
   -1.8945   -6.7618   35.2496 H   0  0  0  0  0  0  0  0  0  0  0  0
   -4.6314   -8.7555   34.1119 H   0  0  0  0  0  0  0  0  0  0  0  0
   -5.7463   -8.0690   36.4845 H   0  0  0  0  0  0  0  0  0  0  0  0
   -5.7546  -10.6655   36.3579 H   0  0  0  0  0  0  0  0  0  0  0  0
   -3.4004  -11.0666   37.0446 H   0  0  0  0  0  0  0  0  0  0  0  0
   -3.9070  -14.2526   32.3533 H   0  0  0  0  0  0  0  0  0  0  0  0
   -1.8182  -15.2388   31.9134 H   0  0  0  0  0  0  0  0  0  0  0  0
    0.2009   -4.9159   29.5390 H   0  0  0  0  0  0  0  0  0  0  0  0
    1.8542   -3.1612   29.0094 H   0  0  0  0  0  0  0  0  0  0  0  0
    3.4130   -2.3732   30.7719 H   0  0  0  0  0  0  0  0  0  0  0  0
    3.2970   -3.2652   33.0318 H   0  0  0  0  0  0  0  0  0  0  0  0
  1  2  2  0
  2  3  1  0
  3  4  1  0
  4  5  1  0
  5  6  1  0
  6  7  2  0
  7  8  1  0
  8  9  1  0
  4 10  1  0
 10 11  1  0
 11 12  1  0
  2 13  1  0
 13 14  1  0
 14 15  2  0
 15 16  1  0
 16 17  1  0
 17 18  1  0
 18 19  1  0
 19 20  2  0
 20 21  1  0
 21 22  2  0
 22 23  1  0
 23 24  2  0
 24 25  1  0
 25 26  2  0
 26 27  1  0
 27 28  2  0
 28 29  1  0
 29 30  2  0
 29 31  1  0
 28 32  1  0
 16 33  1  0
 33 34  2  0
 33 35  1  0
 35 36  2  0
 36 37  1  0
 37 38  2  0
 38 39  1  0
 39 40  2  0
 12  4  1  0
 40 14  1  0
  9  5  2  0
 24 19  1  0
 32 25  1  0
 40 35  1  0
  3 41  1  0
  3 42  1  0
  6 43  1  0
  7 44  1  0
 10 45  1  0
 10 46  1  0
 11 47  1  0
 12 48  1  0
 12 49  1  0
 13 50  1  0
 15 51  1  0
 17 52  1  0
 17 53  1  0
 18 54  1  0
 18 55  1  0
 20 56  1  0
 21 57  1  0
 22 58  1  0
 23 59  1  0
 27 60  1  0
 31 61  1  0
 36 62  1  0
 37 63  1  0
 38 64  1  0
 39 65  1  0
M  END
>  <Energy>  (1101) 
976.32096715243893

>  <compound_id>  (1101) 
4522

>  <target_id>  (1101) 
1

>  <reference_id>  (1101) 
159

>  <inspiration_ids>  (1101) 
[159, 190]

>  <energy_score>  (1101) 
770.0744643556313

>  <distance_score>  (1101) 
3.5812504028774854

>  <path>  (1101) 
/opt/xchem-fragalysis-2/maxwin/BulkDock/SCRATCH/505735/C4522-P159/C4522-P159.minimised.mol

>  <scratch_subdir>  (1101) 
/opt/xchem-fragalysis-2/maxwin/BulkDock/SCRATCH/505735/C4522-P159

>  <fragmenstein_runtime>  (1101) 
21.1431143283844

>  <fragmenstein_outcome>  (1101) 
too moved

>  <fragmenstein_mode>  (1101) 
expansion

>  <fragmenstein_error>  (1101) 


$$$$
C4522-P190
     RDKit          3D

 65 70  0  0  0  0  0  0  0  0999 V2000
    3.0844   -7.2491   35.2345 O   0  0  0  0  0  0  0  0  0  0  0  0
    3.2579   -6.0760   35.0395 C   0  0  0  0  0  0  0  0  0  0  0  0
    4.0234   -5.2694   36.0835 C   0  0  0  0  0  0  0  0  0  0  0  0
    3.1140   -4.7627   37.2085 C   0  0  0  0  0  0  0  0  0  0  0  0
    2.1169   -3.6362   36.7136 C   0  0  0  0  0  0  0  0  0  0  0  0
    0.8547   -3.3349   37.2629 C   0  0  0  0  0  0  0  0  0  0  0  0
    0.3827   -2.3234   36.4681 C   0  0  0  0  0  0  0  0  0  0  0  0
    1.3009   -2.0239   35.5163 O   0  0  0  0  0  0  0  0  0  0  0  0
    2.4061   -2.8456   35.6705 N   0  0  0  0  0  0  0  0  0  0  0  0
    2.4928   -5.8864   38.0894 C   0  0  0  0  0  0  0  0  0  0  0  0
    2.8159   -5.0883   39.2870 N   0  0  0  0  0  0  0  0  0  0  0  0
    3.8500   -4.3677   38.5199 C   0  0  0  0  0  0  0  0  0  0  0  0
    2.8130   -5.2213   33.9584 N   0  0  0  0  0  0  0  0  0  0  0  0
    1.9914   -5.4761   32.8910 C   0  0  0  0  0  0  0  0  0  0  0  0
    1.3240   -6.6350   32.8071 C   0  0  0  0  0  0  0  0  0  0  0  0
    0.4255   -6.9460   31.8087 N   0  0  0  0  0  0  0  0  0  0  0  0
   -0.4268   -8.1331   31.9106 C   0  0  0  0  0  0  0  0  0  0  0  0
   -1.8607   -7.8450   32.3493 C   0  0  0  0  0  0  0  0  0  0  0  0
   -1.9542   -7.6301   33.8526 C   0  0  0  0  0  0  0  0  0  0  0  0
   -1.1777   -6.5570   34.3420 C   0  0  0  0  0  0  0  0  0  0  0  0
   -0.5382   -6.6645   35.5492 C   0  0  0  0  0  0  0  0  0  0  0  0
   -0.7551   -7.8170   36.2456 C   0  0  0  0  0  0  0  0  0  0  0  0
   -1.8625   -8.6203   35.8862 C   0  0  0  0  0  0  0  0  0  0  0  0
   -2.6187   -8.4852   34.7579 C   0  0  0  0  0  0  0  0  0  0  0  0
   -3.9044   -9.2738   34.5752 C   0  0  0  0  0  0  0  0  0  0  0  0
   -4.7246   -9.1766   33.5851 N   0  0  0  0  0  0  0  0  0  0  0  0
   -5.6063  -10.5421   33.2989 C   0  0  0  0  0  0  0  0  0  0  0  0
   -5.4039  -11.8878   33.3172 C   0  0  0  0  0  0  0  0  0  0  0  0
   -4.4093  -13.5523   33.5959 C   0  0  0  0  0  0  0  0  0  0  0  0
   -3.5440  -14.0611   32.7129 O   0  0  0  0  0  0  0  0  0  0  0  0
   -4.3880  -14.2783   34.6961 O   0  0  0  0  0  0  0  0  0  0  0  0
   -4.8060  -10.6272   35.1815 S   0  0  0  0  0  0  0  0  0  0  0  0
    0.2044   -6.1099   30.7381 C   0  0  0  0  0  0  0  0  0  0  0  0
   -0.5282   -6.4257   29.8099 O   0  0  0  0  0  0  0  0  0  0  0  0
    0.8504   -4.7838   30.7904 C   0  0  0  0  0  0  0  0  0  0  0  0
    0.5322   -3.8594   29.7897 C   0  0  0  0  0  0  0  0  0  0  0  0
    1.0968   -2.5928   29.8246 C   0  0  0  0  0  0  0  0  0  0  0  0
    1.9731   -2.2563   30.8531 C   0  0  0  0  0  0  0  0  0  0  0  0
    2.2863   -3.1797   31.8571 C   0  0  0  0  0  0  0  0  0  0  0  0
    1.7234   -4.4615   31.8491 C   0  0  0  0  0  0  0  0  0  0  0  0
    4.5783   -4.4496   35.6116 H   0  0  0  0  0  0  0  0  0  0  0  0
    4.7973   -5.9371   36.4865 H   0  0  0  0  0  0  0  0  0  0  0  0
    0.3542   -3.7861   38.1073 H   0  0  0  0  0  0  0  0  0  0  0  0
   -0.5262   -1.7404   36.4436 H   0  0  0  0  0  0  0  0  0  0  0  0
    1.4278   -6.0937   37.9609 H   0  0  0  0  0  0  0  0  0  0  0  0
    3.0274   -6.8443   38.0574 H   0  0  0  0  0  0  0  0  0  0  0  0
    3.1572   -5.6240   40.0857 H   0  0  0  0  0  0  0  0  0  0  0  0
    4.8522   -4.7997   38.6324 H   0  0  0  0  0  0  0  0  0  0  0  0
    3.9151   -3.2982   38.7431 H   0  0  0  0  0  0  0  0  0  0  0  0
    3.0768   -4.2599   34.1648 H   0  0  0  0  0  0  0  0  0  0  0  0
    1.4072   -7.3784   33.5891 H   0  0  0  0  0  0  0  0  0  0  0  0
   -0.0110   -8.7890   32.6516 H   0  0  0  0  0  0  0  0  0  0  0  0
   -0.4360   -8.6338   30.9362 H   0  0  0  0  0  0  0  0  0  0  0  0
   -2.4941   -8.6699   32.0373 H   0  0  0  0  0  0  0  0  0  0  0  0
   -2.1644   -6.9567   31.8166 H   0  0  0  0  0  0  0  0  0  0  0  0
   -0.9509   -5.7065   33.7028 H   0  0  0  0  0  0  0  0  0  0  0  0
    0.1775   -5.9209   35.8701 H   0  0  0  0  0  0  0  0  0  0  0  0
   -0.1732   -8.0337   37.1384 H   0  0  0  0  0  0  0  0  0  0  0  0
   -2.2128   -9.4189   36.5131 H   0  0  0  0  0  0  0  0  0  0  0  0
   -5.5917  -10.5907   32.2394 H   0  0  0  0  0  0  0  0  0  0  0  0
   -3.5541  -14.8215   34.7834 H   0  0  0  0  0  0  0  0  0  0  0  0
   -0.1614   -4.1156   28.9906 H   0  0  0  0  0  0  0  0  0  0  0  0
    0.8494   -1.8664   29.0528 H   0  0  0  0  0  0  0  0  0  0  0  0
    2.4118   -1.2605   30.8803 H   0  0  0  0  0  0  0  0  0  0  0  0
    2.9674   -2.8575   32.6390 H   0  0  0  0  0  0  0  0  0  0  0  0
  1  2  2  0
  2  3  1  0
  3  4  1  0
  4  5  1  0
  5  6  1  0
  6  7  2  0
  7  8  1  0
  8  9  1  0
  4 10  1  0
 10 11  1  0
 11 12  1  0
  2 13  1  0
 13 14  1  0
 14 15  2  0
 15 16  1  0
 16 17  1  0
 17 18  1  0
 18 19  1  0
 19 20  2  0
 20 21  1  0
 21 22  2  0
 22 23  1  0
 23 24  2  0
 24 25  1  0
 25 26  2  0
 26 27  1  0
 27 28  2  0
 28 29  1  0
 29 30  2  0
 29 31  1  0
 28 32  1  0
 16 33  1  0
 33 34  2  0
 33 35  1  0
 35 36  2  0
 36 37  1  0
 37 38  2  0
 38 39  1  0
 39 40  2  0
 12  4  1  0
 40 14  1  0
  9  5  2  0
 24 19  1  0
 32 25  1  0
 40 35  1  0
  3 41  1  0
  3 42  1  0
  6 43  1  0
  7 44  1  0
 10 45  1  0
 10 46  1  0
 11 47  1  0
 12 48  1  0
 12 49  1  0
 13 50  1  0
 15 51  1  0
 17 52  1  0
 17 53  1  0
 18 54  1  0
 18 55  1  0
 20 56  1  0
 21 57  1  0
 22 58  1  0
 23 59  1  0
 27 60  1  0
 31 61  1  0
 36 62  1  0
 37 63  1  0
 38 64  1  0
 39 65  1  0
M  END
>  <Energy>  (1102) 
420.04452982113474

>  <compound_id>  (1102) 
4522

>  <target_id>  (1102) 
1

>  <reference_id>  (1102) 
190

>  <inspiration_ids>  (1102) 
[159, 190]

>  <energy_score>  (1102) 
213.7980270243334

>  <distance_score>  (1102) 
3.942549218474774

>  <path>  (1102) 
/opt/xchem-fragalysis-2/maxwin/BulkDock/SCRATCH/505735/C4522-P190/C4522-P190.minimised.mol

>  <scratch_subdir>  (1102) 
/opt/xchem-fragalysis-2/maxwin/BulkDock/SCRATCH/505735/C4522-P190

>  <fragmenstein_runtime>  (1102) 
25.009212493896484

>  <fragmenstein_outcome>  (1102) 
too moved

>  <fragmenstein_mode>  (1102) 
expansion

>  <fragmenstein_error>  (1102) 


$$$$
C4523-P159
     RDKit          3D

 69 74  0  0  0  0  0  0  0  0999 V2000
    1.7789    0.0596   28.2159 C   0  0  0  0  0  0  0  0  0  0  0  0
    0.3602    0.4184   28.4431 C   0  0  0  0  0  0  0  0  0  0  0  0
   -0.2957    0.5658   29.6799 C   0  0  0  0  0  0  0  0  0  0  0  0
   -1.5874    0.9379   29.3742 C   0  0  0  0  0  0  0  0  0  0  0  0
   -2.6536    1.4721   30.2204 C   0  0  0  0  0  0  0  0  0  0  0  0
   -3.2627    3.2310   29.7766 C   0  0  0  0  0  0  0  0  0  0  0  0
   -4.7811    3.9915   31.0732 C   0  0  0  0  0  0  0  0  0  0  0  0
   -4.8154    3.2185   32.8835 C   0  0  0  0  0  0  0  0  0  0  0  0
   -3.6619    1.8804   33.3856 C   0  0  0  0  0  0  0  0  0  0  0  0
   -2.7198    1.0240   32.0258 C   0  0  0  0  0  0  0  0  0  0  0  0
   -2.0967   -0.2460   32.4880 C   0  0  0  0  0  0  0  0  0  0  0  0
   -3.1416   -1.2830   32.1874 C   0  0  0  0  0  0  0  0  0  0  0  0
   -2.8329   -2.5549   32.9193 C   0  0  0  0  0  0  0  0  0  0  0  0
   -1.4792   -3.0656   32.7228 N   0  0  0  0  0  0  0  0  0  0  0  0
   -0.7564   -3.4957   33.8229 C   0  0  0  0  0  0  0  0  0  0  0  0
    0.4131   -4.1446   33.7198 C   0  0  0  0  0  0  0  0  0  0  0  0
    0.8980   -4.7909   34.8241 N   0  0  0  0  0  0  0  0  0  0  0  0
    1.5900   -6.0561   34.9566 C   0  0  0  0  0  0  0  0  0  0  0  0
    1.9854   -6.8240   34.1239 O   0  0  0  0  0  0  0  0  0  0  0  0
    1.7932   -6.3826   36.4310 C   0  0  0  0  0  0  0  0  0  0  0  0
    3.1886   -6.0225   36.9497 C   0  0  0  0  0  0  0  0  0  0  0  0
    4.3118   -6.9556   36.3870 C   0  0  0  0  0  0  0  0  0  0  0  0
    4.5745   -8.2628   36.8432 C   0  0  0  0  0  0  0  0  0  0  0  0
    5.6151   -8.6784   36.0537 C   0  0  0  0  0  0  0  0  0  0  0  0
    5.9488   -7.6942   35.1814 O   0  0  0  0  0  0  0  0  0  0  0  0
    5.1233   -6.5996   35.3876 N   0  0  0  0  0  0  0  0  0  0  0  0
    3.2425   -5.8442   38.4972 C   0  0  0  0  0  0  0  0  0  0  0  0
    2.9228   -4.4083   38.2870 N   0  0  0  0  0  0  0  0  0  0  0  0
    3.5694   -4.5084   36.9548 C   0  0  0  0  0  0  0  0  0  0  0  0
    1.0762   -4.1360   32.4034 C   0  0  0  0  0  0  0  0  0  0  0  0
    2.4535   -4.2984   32.2455 C   0  0  0  0  0  0  0  0  0  0  0  0
    3.0505   -4.1512   30.9850 C   0  0  0  0  0  0  0  0  0  0  0  0
    2.2826   -3.8905   29.8545 C   0  0  0  0  0  0  0  0  0  0  0  0
    0.9181   -3.6928   29.9914 C   0  0  0  0  0  0  0  0  0  0  0  0
    0.3384   -3.7764   31.2645 C   0  0  0  0  0  0  0  0  0  0  0  0
   -1.0595   -3.3405   31.4247 C   0  0  0  0  0  0  0  0  0  0  0  0
   -1.7780   -3.2085   30.4430 O   0  0  0  0  0  0  0  0  0  0  0  0
   -1.6349    0.9617   28.0081 N   0  0  0  0  0  0  0  0  0  0  0  0
   -0.4539    0.7048   27.4246 N   0  0  0  0  0  0  0  0  0  0  0  0
    2.1909    0.5849   27.3495 H   0  0  0  0  0  0  0  0  0  0  0  0
    1.8766   -1.0174   28.0535 H   0  0  0  0  0  0  0  0  0  0  0  0
    2.3906    0.3253   29.0844 H   0  0  0  0  0  0  0  0  0  0  0  0
    0.1620    0.4945   30.6536 H   0  0  0  0  0  0  0  0  0  0  0  0
   -3.0067    3.6291   28.7640 H   0  0  0  0  0  0  0  0  0  0  0  0
   -5.8454    4.3849   30.9665 H   0  0  0  0  0  0  0  0  0  0  0  0
   -5.6230    3.4912   33.5710 H   0  0  0  0  0  0  0  0  0  0  0  0
   -3.7318    1.4299   34.3727 H   0  0  0  0  0  0  0  0  0  0  0  0
   -1.1497   -0.4494   31.9950 H   0  0  0  0  0  0  0  0  0  0  0  0
   -1.8877   -0.1734   33.5610 H   0  0  0  0  0  0  0  0  0  0  0  0
   -4.1411   -0.9551   32.5054 H   0  0  0  0  0  0  0  0  0  0  0  0
   -3.2135   -1.4441   31.1069 H   0  0  0  0  0  0  0  0  0  0  0  0
   -3.0162   -2.3788   33.9861 H   0  0  0  0  0  0  0  0  0  0  0  0
   -3.5515   -3.2828   32.5445 H   0  0  0  0  0  0  0  0  0  0  0  0
   -1.2610   -3.4088   34.7811 H   0  0  0  0  0  0  0  0  0  0  0  0
    0.6425   -4.4546   35.7469 H   0  0  0  0  0  0  0  0  0  0  0  0
    1.0090   -5.9024   37.0296 H   0  0  0  0  0  0  0  0  0  0  0  0
    1.6057   -7.4581   36.5545 H   0  0  0  0  0  0  0  0  0  0  0  0
    4.0876   -8.8211   37.6288 H   0  0  0  0  0  0  0  0  0  0  0  0
    6.2012   -9.5828   35.9830 H   0  0  0  0  0  0  0  0  0  0  0  0
    4.2254   -6.0051   38.9585 H   0  0  0  0  0  0  0  0  0  0  0  0
    2.4946   -6.3941   39.0766 H   0  0  0  0  0  0  0  0  0  0  0  0
    3.3890   -3.7723   38.9366 H   0  0  0  0  0  0  0  0  0  0  0  0
    4.6452   -4.2910   36.9837 H   0  0  0  0  0  0  0  0  0  0  0  0
    3.1180   -3.8772   36.1854 H   0  0  0  0  0  0  0  0  0  0  0  0
    3.0936   -4.5110   33.0988 H   0  0  0  0  0  0  0  0  0  0  0  0
    4.1297   -4.2561   30.8875 H   0  0  0  0  0  0  0  0  0  0  0  0
    2.7535   -3.7969   28.8795 H   0  0  0  0  0  0  0  0  0  0  0  0
    0.3164   -3.4190   29.1250 H   0  0  0  0  0  0  0  0  0  0  0  0
   -2.4191    1.2121   27.4157 H   0  0  0  0  0  0  0  0  0  0  0  0
  1  2  1  0
  2  3  1  0
  3  4  2  0
  4  5  1  0
  5  6  2  0
  6  7  1  0
  7  8  2  0
  8  9  1  0
  9 10  2  0
 10 11  1  0
 11 12  1  0
 12 13  1  0
 13 14  1  0
 14 15  1  0
 15 16  2  0
 16 17  1  0
 17 18  1  0
 18 19  2  0
 18 20  1  0
 20 21  1  0
 21 22  1  0
 22 23  1  0
 23 24  2  0
 24 25  1  0
 25 26  1  0
 21 27  1  0
 27 28  1  0
 28 29  1  0
 16 30  1  0
 30 31  2  0
 31 32  1  0
 32 33  2  0
 33 34  1  0
 34 35  2  0
 35 36  1  0
 36 37  2  0
  4 38  1  0
 38 39  1  0
 39  2  2  0
 10  5  1  0
 36 14  1  0
 29 21  1  0
 35 30  1  0
 26 22  2  0
  1 40  1  0
  1 41  1  0
  1 42  1  0
  3 43  1  0
  6 44  1  0
  7 45  1  0
  8 46  1  0
  9 47  1  0
 11 48  1  0
 11 49  1  0
 12 50  1  0
 12 51  1  0
 13 52  1  0
 13 53  1  0
 15 54  1  0
 17 55  1  0
 20 56  1  0
 20 57  1  0
 23 58  1  0
 24 59  1  0
 27 60  1  0
 27 61  1  0
 28 62  1  0
 29 63  1  0
 29 64  1  0
 31 65  1  0
 32 66  1  0
 33 67  1  0
 34 68  1  0
 38 69  1  0
M  END
>  <Energy>  (1103) 
622.50189491989534

>  <compound_id>  (1103) 
4523

>  <target_id>  (1103) 
1

>  <reference_id>  (1103) 
159

>  <inspiration_ids>  (1103) 
[159, 195]

>  <energy_score>  (1103) 
461.8011956421364

>  <distance_score>  (1103) 
2.605290944102172

>  <path>  (1103) 
/opt/xchem-fragalysis-2/maxwin/BulkDock/SCRATCH/505735/C4523-P159/C4523-P159.minimised.mol

>  <scratch_subdir>  (1103) 
/opt/xchem-fragalysis-2/maxwin/BulkDock/SCRATCH/505735/C4523-P159

>  <fragmenstein_runtime>  (1103) 
12.720673322677612

>  <fragmenstein_outcome>  (1103) 
too moved

>  <fragmenstein_mode>  (1103) 
expansion

>  <fragmenstein_error>  (1103) 


$$$$
C4523-P195
     RDKit          3D

 69 74  0  0  0  0  0  0  0  0999 V2000
    0.0387    4.4177   25.9054 C   0  0  0  0  0  0  0  0  0  0  0  0
   -0.8890    3.6226   26.7421 C   0  0  0  0  0  0  0  0  0  0  0  0
   -1.3656    3.9248   28.0370 C   0  0  0  0  0  0  0  0  0  0  0  0
   -2.2003    2.8841   28.3705 C   0  0  0  0  0  0  0  0  0  0  0  0
   -2.9398    2.5646   29.6209 C   0  0  0  0  0  0  0  0  0  0  0  0
   -4.2431    3.7954   30.6501 C   0  0  0  0  0  0  0  0  0  0  0  0
   -4.4919    3.2592   32.6716 C   0  0  0  0  0  0  0  0  0  0  0  0
   -3.6763    1.8163   33.4638 C   0  0  0  0  0  0  0  0  0  0  0  0
   -2.8006    0.7338   32.2960 C   0  0  0  0  0  0  0  0  0  0  0  0
   -2.5010    0.9842   30.5100 C   0  0  0  0  0  0  0  0  0  0  0  0
   -1.6148    0.0051   29.7493 C   0  0  0  0  0  0  0  0  0  0  0  0
   -1.1418   -1.2341   30.5078 C   0  0  0  0  0  0  0  0  0  0  0  0
    0.0082   -0.9031   31.4569 C   0  0  0  0  0  0  0  0  0  0  0  0
    0.4778   -2.0688   32.2049 N   0  0  0  0  0  0  0  0  0  0  0  0
   -0.2565   -2.5290   33.2874 C   0  0  0  0  0  0  0  0  0  0  0  0
    0.1958   -3.4627   34.1413 C   0  0  0  0  0  0  0  0  0  0  0  0
   -0.4704   -3.6625   35.3244 N   0  0  0  0  0  0  0  0  0  0  0  0
    0.0246   -3.9638   36.6566 C   0  0  0  0  0  0  0  0  0  0  0  0
    1.1351   -4.1925   37.0450 O   0  0  0  0  0  0  0  0  0  0  0  0
   -1.1412   -3.9950   37.6341 C   0  0  0  0  0  0  0  0  0  0  0  0
   -0.7430   -4.1182   39.1197 C   0  0  0  0  0  0  0  0  0  0  0  0
   -0.3758   -5.5866   39.5908 C   0  0  0  0  0  0  0  0  0  0  0  0
    0.4185   -6.5137   38.8824 C   0  0  0  0  0  0  0  0  0  0  0  0
    0.4331   -7.6271   39.6809 C   0  0  0  0  0  0  0  0  0  0  0  0
   -0.2867   -7.3882   40.8024 O   0  0  0  0  0  0  0  0  0  0  0  0
   -0.7956   -6.1028   40.7533 N   0  0  0  0  0  0  0  0  0  0  0  0
   -1.7805   -3.4078   40.0540 C   0  0  0  0  0  0  0  0  0  0  0  0
   -0.9605   -2.1747   39.9497 N   0  0  0  0  0  0  0  0  0  0  0  0
    0.2223   -3.0303   39.6875 C   0  0  0  0  0  0  0  0  0  0  0  0
    1.4798   -4.1213   33.8299 C   0  0  0  0  0  0  0  0  0  0  0  0
    1.9357   -5.2687   34.4918 C   0  0  0  0  0  0  0  0  0  0  0  0
    3.2248   -5.7569   34.2830 C   0  0  0  0  0  0  0  0  0  0  0  0
    4.0618   -5.1349   33.3658 C   0  0  0  0  0  0  0  0  0  0  0  0
    3.5809   -4.0884   32.5904 C   0  0  0  0  0  0  0  0  0  0  0  0
    2.2859   -3.6031   32.8085 C   0  0  0  0  0  0  0  0  0  0  0  0
    1.7591   -2.5428   31.9207 C   0  0  0  0  0  0  0  0  0  0  0  0
    2.4554   -2.1374   30.9933 O   0  0  0  0  0  0  0  0  0  0  0  0
   -2.2078    2.0659   27.2717 N   0  0  0  0  0  0  0  0  0  0  0  0
   -1.3759    2.4612   26.2920 N   0  0  0  0  0  0  0  0  0  0  0  0
   -0.4709    4.7776   25.0059 H   0  0  0  0  0  0  0  0  0  0  0  0
    0.8973    3.8116   25.5983 H   0  0  0  0  0  0  0  0  0  0  0  0
    0.4174    5.2873   26.4519 H   0  0  0  0  0  0  0  0  0  0  0  0
   -1.1110    4.7808   28.6443 H   0  0  0  0  0  0  0  0  0  0  0  0
   -3.7136    4.6438   29.8500 H   0  0  0  0  0  0  0  0  0  0  0  0
   -5.4079    3.5461   33.2575 H   0  0  0  0  0  0  0  0  0  0  0  0
   -3.9319    1.4945   34.4677 H   0  0  0  0  0  0  0  0  0  0  0  0
   -2.4595   -0.2065   32.7300 H   0  0  0  0  0  0  0  0  0  0  0  0
   -2.1769   -0.3387   28.8765 H   0  0  0  0  0  0  0  0  0  0  0  0
   -0.7419    0.5540   29.3786 H   0  0  0  0  0  0  0  0  0  0  0  0
   -1.9749   -1.7152   31.0325 H   0  0  0  0  0  0  0  0  0  0  0  0
   -0.7788   -1.9704   29.7785 H   0  0  0  0  0  0  0  0  0  0  0  0
    0.8330   -0.4735   30.8760 H   0  0  0  0  0  0  0  0  0  0  0  0
   -0.2599   -0.1321   32.1859 H   0  0  0  0  0  0  0  0  0  0  0  0
   -1.1864   -2.0056   33.4824 H   0  0  0  0  0  0  0  0  0  0  0  0
   -1.4614   -3.4402   35.3804 H   0  0  0  0  0  0  0  0  0  0  0  0
   -1.7167   -3.0730   37.4772 H   0  0  0  0  0  0  0  0  0  0  0  0
   -1.7869   -4.8313   37.3502 H   0  0  0  0  0  0  0  0  0  0  0  0
    0.9124   -6.4151   37.9296 H   0  0  0  0  0  0  0  0  0  0  0  0
    0.8714   -8.6109   39.6019 H   0  0  0  0  0  0  0  0  0  0  0  0
   -1.8536   -3.7775   41.0837 H   0  0  0  0  0  0  0  0  0  0  0  0
   -2.7961   -3.2971   39.6627 H   0  0  0  0  0  0  0  0  0  0  0  0
   -0.9025   -1.6381   40.8156 H   0  0  0  0  0  0  0  0  0  0  0  0
    0.7600   -3.3170   40.6007 H   0  0  0  0  0  0  0  0  0  0  0  0
    0.9433   -2.5843   38.9978 H   0  0  0  0  0  0  0  0  0  0  0  0
    1.3119   -5.7795   35.2191 H   0  0  0  0  0  0  0  0  0  0  0  0
    3.5850   -6.5974   34.8699 H   0  0  0  0  0  0  0  0  0  0  0  0
    5.0854   -5.4766   33.2366 H   0  0  0  0  0  0  0  0  0  0  0  0
    4.2152   -3.6421   31.8275 H   0  0  0  0  0  0  0  0  0  0  0  0
   -2.7415    1.2161   27.1305 H   0  0  0  0  0  0  0  0  0  0  0  0
  1  2  1  0
  2  3  1  0
  3  4  2  0
  4  5  1  0
  5  6  2  0
  6  7  1  0
  7  8  2  0
  8  9  1  0
  9 10  2  0
 10 11  1  0
 11 12  1  0
 12 13  1  0
 13 14  1  0
 14 15  1  0
 15 16  2  0
 16 17  1  0
 17 18  1  0
 18 19  2  0
 18 20  1  0
 20 21  1  0
 21 22  1  0
 22 23  1  0
 23 24  2  0
 24 25  1  0
 25 26  1  0
 21 27  1  0
 27 28  1  0
 28 29  1  0
 16 30  1  0
 30 31  2  0
 31 32  1  0
 32 33  2  0
 33 34  1  0
 34 35  2  0
 35 36  1  0
 36 37  2  0
  4 38  1  0
 38 39  1  0
 39  2  2  0
 10  5  1  0
 36 14  1  0
 29 21  1  0
 35 30  1  0
 26 22  2  0
  1 40  1  0
  1 41  1  0
  1 42  1  0
  3 43  1  0
  6 44  1  0
  7 45  1  0
  8 46  1  0
  9 47  1  0
 11 48  1  0
 11 49  1  0
 12 50  1  0
 12 51  1  0
 13 52  1  0
 13 53  1  0
 15 54  1  0
 17 55  1  0
 20 56  1  0
 20 57  1  0
 23 58  1  0
 24 59  1  0
 27 60  1  0
 27 61  1  0
 28 62  1  0
 29 63  1  0
 29 64  1  0
 31 65  1  0
 32 66  1  0
 33 67  1  0
 34 68  1  0
 38 69  1  0
M  END
>  <Energy>  (1104) 
640.6151766754856

>  <compound_id>  (1104) 
4523

>  <target_id>  (1104) 
1

>  <reference_id>  (1104) 
195

>  <inspiration_ids>  (1104) 
[159, 195]

>  <energy_score>  (1104) 
479.91447739772826

>  <distance_score>  (1104) 
3.7544934958269542

>  <path>  (1104) 
/opt/xchem-fragalysis-2/maxwin/BulkDock/SCRATCH/505735/C4523-P195/C4523-P195.minimised.mol

>  <scratch_subdir>  (1104) 
/opt/xchem-fragalysis-2/maxwin/BulkDock/SCRATCH/505735/C4523-P195

>  <fragmenstein_runtime>  (1104) 
16.98085594177246

>  <fragmenstein_outcome>  (1104) 
too moved

>  <fragmenstein_mode>  (1104) 
expansion

>  <fragmenstein_error>  (1104) 


$$$$
C4524-P159
     RDKit          3D

 57 62  0  0  0  0  0  0  0  0999 V2000
    2.2605   -7.6426   36.2314 O   0  0  0  0  0  0  0  0  0  0  0  0
    2.3137   -6.5045   36.6071 C   0  0  0  0  0  0  0  0  0  0  0  0
    3.0200   -6.1802   37.9223 C   0  0  0  0  0  0  0  0  0  0  0  0
    2.6397   -7.0514   39.1357 C   0  0  0  0  0  0  0  0  0  0  0  0
    3.2165   -6.4139   40.4853 C   0  0  0  0  0  0  0  0  0  0  0  0
    3.0825   -6.9658   41.7780 C   0  0  0  0  0  0  0  0  0  0  0  0
    3.7305   -6.0724   42.5890 C   0  0  0  0  0  0  0  0  0  0  0  0
    4.2197   -5.0518   41.8430 O   0  0  0  0  0  0  0  0  0  0  0  0
    3.8980   -5.2610   40.5121 N   0  0  0  0  0  0  0  0  0  0  0  0
    1.1489   -7.4965   39.2769 C   0  0  0  0  0  0  0  0  0  0  0  0
    1.6170   -8.8312   39.6914 N   0  0  0  0  0  0  0  0  0  0  0  0
    2.9237   -8.5828   39.0496 C   0  0  0  0  0  0  0  0  0  0  0  0
    1.7408   -5.2923   36.0443 N   0  0  0  0  0  0  0  0  0  0  0  0
    0.9045   -5.1072   34.9796 C   0  0  0  0  0  0  0  0  0  0  0  0
    0.6821   -3.8974   34.4485 C   0  0  0  0  0  0  0  0  0  0  0  0
   -0.1015   -3.7170   33.3166 N   0  0  0  0  0  0  0  0  0  0  0  0
   -0.8265   -2.4611   33.1846 C   0  0  0  0  0  0  0  0  0  0  0  0
   -0.5863   -1.7637   31.8963 C   0  0  0  0  0  0  0  0  0  0  0  0
   -1.2545   -1.9320   30.7048 C   0  0  0  0  0  0  0  0  0  0  0  0
   -0.7765   -0.9654   29.8719 N   0  0  0  0  0  0  0  0  0  0  0  0
   -1.1519   -0.6566   28.5717 C   0  0  0  0  0  0  0  0  0  0  0  0
   -2.0847   -1.4141   27.9057 O   0  0  0  0  0  0  0  0  0  0  0  0
   -0.6305    0.4310   27.9925 C   0  0  0  0  0  0  0  0  0  0  0  0
    0.3508    1.1385   28.8246 C   0  0  0  0  0  0  0  0  0  0  0  0
    0.8737    2.1862   28.1755 O   0  0  0  0  0  0  0  0  0  0  0  0
    0.7463    0.8817   30.0244 N   0  0  0  0  0  0  0  0  0  0  0  0
    0.1498   -0.2107   30.5892 C   0  0  0  0  0  0  0  0  0  0  0  0
    0.2859   -0.6975   31.8086 N   0  0  0  0  0  0  0  0  0  0  0  0
   -0.5278   -4.7876   32.5331 C   0  0  0  0  0  0  0  0  0  0  0  0
   -1.1921   -4.6996   31.5044 O   0  0  0  0  0  0  0  0  0  0  0  0
   -0.3575   -6.1298   33.1084 C   0  0  0  0  0  0  0  0  0  0  0  0
   -1.0947   -7.1572   32.5163 C   0  0  0  0  0  0  0  0  0  0  0  0
   -1.6399   -8.1191   33.3355 C   0  0  0  0  0  0  0  0  0  0  0  0
   -1.3828   -8.0759   34.7002 C   0  0  0  0  0  0  0  0  0  0  0  0
   -0.4724   -7.1737   35.2311 C   0  0  0  0  0  0  0  0  0  0  0  0
    0.0955   -6.1972   34.4248 C   0  0  0  0  0  0  0  0  0  0  0  0
    4.0973   -6.2627   37.7283 H   0  0  0  0  0  0  0  0  0  0  0  0
    2.8302   -5.1322   38.1804 H   0  0  0  0  0  0  0  0  0  0  0  0
    2.5900   -7.8796   42.0774 H   0  0  0  0  0  0  0  0  0  0  0  0
    3.9247   -6.0139   43.6494 H   0  0  0  0  0  0  0  0  0  0  0  0
    0.5643   -7.5202   38.3537 H   0  0  0  0  0  0  0  0  0  0  0  0
    0.5531   -6.9712   40.0303 H   0  0  0  0  0  0  0  0  0  0  0  0
    1.0992   -9.6345   39.3176 H   0  0  0  0  0  0  0  0  0  0  0  0
    3.0017   -9.0038   38.0442 H   0  0  0  0  0  0  0  0  0  0  0  0
    3.7824   -8.9517   39.6204 H   0  0  0  0  0  0  0  0  0  0  0  0
    2.0603   -4.4938   36.5819 H   0  0  0  0  0  0  0  0  0  0  0  0
    1.1141   -2.9959   34.8754 H   0  0  0  0  0  0  0  0  0  0  0  0
   -0.5695   -1.7866   34.0109 H   0  0  0  0  0  0  0  0  0  0  0  0
   -1.8978   -2.6784   33.2809 H   0  0  0  0  0  0  0  0  0  0  0  0
   -2.0346   -2.6144   30.4034 H   0  0  0  0  0  0  0  0  0  0  0  0
   -1.9528   -2.3726   28.0504 H   0  0  0  0  0  0  0  0  0  0  0  0
   -0.8925    0.7772   27.0062 H   0  0  0  0  0  0  0  0  0  0  0  0
    1.4792    2.6394   28.7868 H   0  0  0  0  0  0  0  0  0  0  0  0
   -1.3949   -7.1043   31.4746 H   0  0  0  0  0  0  0  0  0  0  0  0
   -2.3240   -8.8503   32.9249 H   0  0  0  0  0  0  0  0  0  0  0  0
   -1.8805   -8.7604   35.3773 H   0  0  0  0  0  0  0  0  0  0  0  0
   -0.2904   -7.1996   36.2999 H   0  0  0  0  0  0  0  0  0  0  0  0
  1  2  2  0
  2  3  1  0
  3  4  1  0
  4  5  1  0
  5  6  1  0
  6  7  2  0
  7  8  1  0
  8  9  1  0
  4 10  1  0
 10 11  1  0
 11 12  1  0
  2 13  1  0
 13 14  1  0
 14 15  2  0
 15 16  1  0
 16 17  1  0
 17 18  1  0
 18 19  2  0
 19 20  1  0
 20 21  1  0
 21 22  1  0
 21 23  2  0
 23 24  1  0
 24 25  1  0
 24 26  2  0
 26 27  1  0
 27 28  2  0
 16 29  1  0
 29 30  2  0
 29 31  1  0
 31 32  2  0
 32 33  1  0
 33 34  2  0
 34 35  1  0
 35 36  2  0
 12  4  1  0
 36 14  1  0
  9  5  2  0
 28 18  1  0
 36 31  1  0
 27 20  1  0
  3 37  1  0
  3 38  1  0
  6 39  1  0
  7 40  1  0
 10 41  1  0
 10 42  1  0
 11 43  1  0
 12 44  1  0
 12 45  1  0
 13 46  1  0
 15 47  1  0
 17 48  1  0
 17 49  1  0
 19 50  1  0
 22 51  1  0
 23 52  1  0
 25 53  1  0
 32 54  1  0
 33 55  1  0
 34 56  1  0
 35 57  1  0
M  END
>  <Energy>  (1105) 
75.03202161760251

>  <compound_id>  (1105) 
4524

>  <target_id>  (1105) 
1

>  <reference_id>  (1105) 
159

>  <inspiration_ids>  (1105) 
[159, 196]

>  <energy_score>  (1105) 
-48.642938118473865

>  <distance_score>  (1105) 
3.355324936772937

>  <path>  (1105) 
/opt/xchem-fragalysis-2/maxwin/BulkDock/SCRATCH/505735/C4524-P159/C4524-P159.minimised.mol

>  <scratch_subdir>  (1105) 
/opt/xchem-fragalysis-2/maxwin/BulkDock/SCRATCH/505735/C4524-P159

>  <fragmenstein_runtime>  (1105) 
31.31911063194275

>  <fragmenstein_outcome>  (1105) 
too moved

>  <fragmenstein_mode>  (1105) 
expansion

>  <fragmenstein_error>  (1105) 


$$$$
C4524-P196
     RDKit          3D

 57 62  0  0  0  0  0  0  0  0999 V2000
    1.5865   -4.5355   36.5579 O   0  0  0  0  0  0  0  0  0  0  0  0
    2.2305   -5.3589   36.0237 C   0  0  0  0  0  0  0  0  0  0  0  0
    3.2836   -6.1361   36.7955 C   0  0  0  0  0  0  0  0  0  0  0  0
    2.6810   -6.8564   38.0533 C   0  0  0  0  0  0  0  0  0  0  0  0
    3.5230   -8.1569   38.4368 C   0  0  0  0  0  0  0  0  0  0  0  0
    3.1912   -9.0820   39.4531 C   0  0  0  0  0  0  0  0  0  0  0  0
    4.2156   -9.9908   39.4207 C   0  0  0  0  0  0  0  0  0  0  0  0
    5.0929   -9.6539   38.4440 O   0  0  0  0  0  0  0  0  0  0  0  0
    4.6616   -8.4965   37.8180 N   0  0  0  0  0  0  0  0  0  0  0  0
    1.1356   -7.1122   38.2075 C   0  0  0  0  0  0  0  0  0  0  0  0
    1.2256   -6.6675   39.6153 N   0  0  0  0  0  0  0  0  0  0  0  0
    2.4586   -5.9162   39.2814 C   0  0  0  0  0  0  0  0  0  0  0  0
    2.1427   -5.9305   34.5609 N   0  0  0  0  0  0  0  0  0  0  0  0
    1.2311   -5.6813   33.5560 C   0  0  0  0  0  0  0  0  0  0  0  0
    1.4598   -5.8503   32.2502 C   0  0  0  0  0  0  0  0  0  0  0  0
    0.4907   -6.4017   31.4098 N   0  0  0  0  0  0  0  0  0  0  0  0
    0.4098   -6.0447   30.0425 C   0  0  0  0  0  0  0  0  0  0  0  0
    0.2066   -4.5703   29.9142 C   0  0  0  0  0  0  0  0  0  0  0  0
   -0.6775   -3.7080   30.5388 C   0  0  0  0  0  0  0  0  0  0  0  0
   -0.4825   -2.4829   29.9431 N   0  0  0  0  0  0  0  0  0  0  0  0
   -1.1717   -1.2822   30.0955 C   0  0  0  0  0  0  0  0  0  0  0  0
   -2.1756   -1.2215   31.0431 O   0  0  0  0  0  0  0  0  0  0  0  0
   -0.8308   -0.2415   29.3117 C   0  0  0  0  0  0  0  0  0  0  0  0
    0.3566   -0.4840   28.4597 C   0  0  0  0  0  0  0  0  0  0  0  0
    0.8085    0.5920   27.8114 O   0  0  0  0  0  0  0  0  0  0  0  0
    1.0314   -1.5724   28.3315 N   0  0  0  0  0  0  0  0  0  0  0  0
    0.5734   -2.6234   29.0538 C   0  0  0  0  0  0  0  0  0  0  0  0
    1.0195   -3.8626   29.0570 N   0  0  0  0  0  0  0  0  0  0  0  0
   -0.5468   -7.1972   31.8461 C   0  0  0  0  0  0  0  0  0  0  0  0
   -1.2657   -7.9189   31.1601 O   0  0  0  0  0  0  0  0  0  0  0  0
   -0.8001   -7.0094   33.2492 C   0  0  0  0  0  0  0  0  0  0  0  0
   -1.6727   -7.8430   33.8753 C   0  0  0  0  0  0  0  0  0  0  0  0
   -1.8558   -7.6428   35.2099 C   0  0  0  0  0  0  0  0  0  0  0  0
   -1.4352   -6.4494   35.7904 C   0  0  0  0  0  0  0  0  0  0  0  0
   -0.6747   -5.5370   35.1008 C   0  0  0  0  0  0  0  0  0  0  0  0
   -0.1549   -5.9681   33.9202 C   0  0  0  0  0  0  0  0  0  0  0  0
    3.7413   -6.8739   36.1304 H   0  0  0  0  0  0  0  0  0  0  0  0
    4.0782   -5.4435   37.0964 H   0  0  0  0  0  0  0  0  0  0  0  0
    2.3397   -9.0825   40.1175 H   0  0  0  0  0  0  0  0  0  0  0  0
    4.4596  -10.8790   39.9834 H   0  0  0  0  0  0  0  0  0  0  0  0
    0.4872   -6.4654   37.6218 H   0  0  0  0  0  0  0  0  0  0  0  0
    0.7880   -8.1407   38.0738 H   0  0  0  0  0  0  0  0  0  0  0  0
    0.4473   -6.0821   39.9204 H   0  0  0  0  0  0  0  0  0  0  0  0
    2.2699   -4.8642   39.0374 H   0  0  0  0  0  0  0  0  0  0  0  0
    3.2286   -5.9436   40.0592 H   0  0  0  0  0  0  0  0  0  0  0  0
    2.9052   -6.5750   34.4028 H   0  0  0  0  0  0  0  0  0  0  0  0
    2.4126   -5.6096   31.7949 H   0  0  0  0  0  0  0  0  0  0  0  0
   -0.4338   -6.5426   29.5683 H   0  0  0  0  0  0  0  0  0  0  0  0
    1.3345   -6.3515   29.5433 H   0  0  0  0  0  0  0  0  0  0  0  0
   -1.4358   -3.8556   31.2917 H   0  0  0  0  0  0  0  0  0  0  0  0
   -2.6048   -0.3523   30.9753 H   0  0  0  0  0  0  0  0  0  0  0  0
   -1.2984    0.7292   29.3306 H   0  0  0  0  0  0  0  0  0  0  0  0
    0.1920    1.3300   27.6925 H   0  0  0  0  0  0  0  0  0  0  0  0
   -2.1234   -8.6704   33.3477 H   0  0  0  0  0  0  0  0  0  0  0  0
   -2.3456   -8.4261   35.7766 H   0  0  0  0  0  0  0  0  0  0  0  0
   -1.6443   -6.2308   36.8315 H   0  0  0  0  0  0  0  0  0  0  0  0
   -0.3614   -4.6216   35.5832 H   0  0  0  0  0  0  0  0  0  0  0  0
  1  2  2  0
  2  3  1  0
  3  4  1  0
  4  5  1  0
  5  6  1  0
  6  7  2  0
  7  8  1  0
  8  9  1  0
  4 10  1  0
 10 11  1  0
 11 12  1  0
  2 13  1  0
 13 14  1  0
 14 15  2  0
 15 16  1  0
 16 17  1  0
 17 18  1  0
 18 19  2  0
 19 20  1  0
 20 21  1  0
 21 22  1  0
 21 23  2  0
 23 24  1  0
 24 25  1  0
 24 26  2  0
 26 27  1  0
 27 28  2  0
 16 29  1  0
 29 30  2  0
 29 31  1  0
 31 32  2  0
 32 33  1  0
 33 34  2  0
 34 35  1  0
 35 36  2  0
 12  4  1  0
 36 14  1  0
  9  5  2  0
 28 18  1  0
 36 31  1  0
 27 20  1  0
  3 37  1  0
  3 38  1  0
  6 39  1  0
  7 40  1  0
 10 41  1  0
 10 42  1  0
 11 43  1  0
 12 44  1  0
 12 45  1  0
 13 46  1  0
 15 47  1  0
 17 48  1  0
 17 49  1  0
 19 50  1  0
 22 51  1  0
 23 52  1  0
 25 53  1  0
 32 54  1  0
 33 55  1  0
 34 56  1  0
 35 57  1  0
M  END
>  <Energy>  (1106) 
130.87928269073225

>  <compound_id>  (1106) 
4524

>  <target_id>  (1106) 
1

>  <reference_id>  (1106) 
196

>  <inspiration_ids>  (1106) 
[159, 196]

>  <energy_score>  (1106) 
-1.893721296727307

>  <distance_score>  (1106) 
2.7345456247601465

>  <path>  (1106) 
/opt/xchem-fragalysis-2/maxwin/BulkDock/SCRATCH/505735/C4524-P196/C4524-P196.minimised.mol

>  <scratch_subdir>  (1106) 
/opt/xchem-fragalysis-2/maxwin/BulkDock/SCRATCH/505735/C4524-P196

>  <fragmenstein_runtime>  (1106) 
25.21574306488037

>  <fragmenstein_outcome>  (1106) 
too moved

>  <fragmenstein_mode>  (1106) 
expansion

>  <fragmenstein_error>  (1106) 


$$$$
C4525-P159
     RDKit          3D

 63 68  0  0  0  0  0  0  0  0999 V2000
   -0.4838    0.1851   29.8330 N   0  0  0  0  0  0  0  0  0  0  0  0
   -1.2985   -0.2460   30.8855 C   0  0  0  0  0  0  0  0  0  0  0  0
   -1.4212    0.4822   32.0613 C   0  0  0  0  0  0  0  0  0  0  0  0
   -2.3310    0.0901   33.0496 C   0  0  0  0  0  0  0  0  0  0  0  0
   -3.0871   -1.0744   32.8856 C   0  0  0  0  0  0  0  0  0  0  0  0
   -4.2468   -1.3589   33.7169 C   0  0  0  0  0  0  0  0  0  0  0  0
   -5.3392   -2.0293   33.4163 N   0  0  0  0  0  0  0  0  0  0  0  0
   -6.1491   -1.7346   34.4706 C   0  0  0  0  0  0  0  0  0  0  0  0
   -5.6033   -0.9834   35.4299 N   0  0  0  0  0  0  0  0  0  0  0  0
   -4.3255   -0.7182   34.9239 O   0  0  0  0  0  0  0  0  0  0  0  0
   -2.7429   -1.9356   31.8409 C   0  0  0  0  0  0  0  0  0  0  0  0
   -1.7831   -1.5524   30.8953 C   0  0  0  0  0  0  0  0  0  0  0  0
   -1.1058   -2.5551   29.9966 C   0  0  0  0  0  0  0  0  0  0  0  0
    0.3551   -2.7222   30.4819 C   0  0  0  0  0  0  0  0  0  0  0  0
    0.4477   -3.8048   31.4477 N   0  0  0  0  0  0  0  0  0  0  0  0
    0.5438   -3.5771   32.8159 C   0  0  0  0  0  0  0  0  0  0  0  0
    0.5214   -4.5997   33.6858 C   0  0  0  0  0  0  0  0  0  0  0  0
    0.9515   -4.5012   34.9742 N   0  0  0  0  0  0  0  0  0  0  0  0
    1.6155   -5.5695   35.9086 C   0  0  0  0  0  0  0  0  0  0  0  0
    1.9595   -6.6663   35.6820 O   0  0  0  0  0  0  0  0  0  0  0  0
    1.7399   -4.9480   37.2998 C   0  0  0  0  0  0  0  0  0  0  0  0
    1.2637   -5.8188   38.4812 C   0  0  0  0  0  0  0  0  0  0  0  0
    1.3579   -4.9990   39.8251 C   0  0  0  0  0  0  0  0  0  0  0  0
    2.3477   -5.1523   40.8162 C   0  0  0  0  0  0  0  0  0  0  0  0
    2.0235   -4.2027   41.7499 C   0  0  0  0  0  0  0  0  0  0  0  0
    0.9314   -3.5114   41.3390 O   0  0  0  0  0  0  0  0  0  0  0  0
    0.5141   -4.0015   40.1117 N   0  0  0  0  0  0  0  0  0  0  0  0
   -0.1280   -6.5028   38.3444 C   0  0  0  0  0  0  0  0  0  0  0  0
    0.5496   -7.7545   37.9645 N   0  0  0  0  0  0  0  0  0  0  0  0
    1.7902   -7.2816   38.6016 C   0  0  0  0  0  0  0  0  0  0  0  0
   -0.0015   -5.8828   33.1893 C   0  0  0  0  0  0  0  0  0  0  0  0
   -0.7006   -6.7710   34.0155 C   0  0  0  0  0  0  0  0  0  0  0  0
   -1.3216   -7.8912   33.4813 C   0  0  0  0  0  0  0  0  0  0  0  0
   -1.2135   -8.1680   32.1268 C   0  0  0  0  0  0  0  0  0  0  0  0
   -0.5340   -7.2999   31.2851 C   0  0  0  0  0  0  0  0  0  0  0  0
    0.0325   -6.1459   31.8218 C   0  0  0  0  0  0  0  0  0  0  0  0
    0.4692   -5.0874   30.9098 C   0  0  0  0  0  0  0  0  0  0  0  0
    0.7152   -5.3543   29.7410 O   0  0  0  0  0  0  0  0  0  0  0  0
   -0.4076    1.1970   29.7647 H   0  0  0  0  0  0  0  0  0  0  0  0
   -0.7542   -0.1937   28.9251 H   0  0  0  0  0  0  0  0  0  0  0  0
   -0.8479    1.3957   32.1920 H   0  0  0  0  0  0  0  0  0  0  0  0
   -2.4830    0.7396   33.9088 H   0  0  0  0  0  0  0  0  0  0  0  0
   -7.1713   -2.0756   34.5469 H   0  0  0  0  0  0  0  0  0  0  0  0
   -3.2124   -2.9124   31.7766 H   0  0  0  0  0  0  0  0  0  0  0  0
   -1.6396   -3.5050   30.0145 H   0  0  0  0  0  0  0  0  0  0  0  0
   -1.1336   -2.2124   28.9566 H   0  0  0  0  0  0  0  0  0  0  0  0
    0.9705   -2.9837   29.6117 H   0  0  0  0  0  0  0  0  0  0  0  0
    0.8105   -1.8234   30.9097 H   0  0  0  0  0  0  0  0  0  0  0  0
    0.7869   -2.5616   33.1117 H   0  0  0  0  0  0  0  0  0  0  0  0
    0.8596   -3.6245   35.4731 H   0  0  0  0  0  0  0  0  0  0  0  0
    1.1966   -3.9973   37.3352 H   0  0  0  0  0  0  0  0  0  0  0  0
    2.8021   -4.7028   37.4297 H   0  0  0  0  0  0  0  0  0  0  0  0
    3.1712   -5.8487   40.8575 H   0  0  0  0  0  0  0  0  0  0  0  0
    2.4381   -3.8992   42.6997 H   0  0  0  0  0  0  0  0  0  0  0  0
   -0.7870   -6.0903   37.5753 H   0  0  0  0  0  0  0  0  0  0  0  0
   -0.6974   -6.5894   39.2777 H   0  0  0  0  0  0  0  0  0  0  0  0
    0.1745   -8.6201   38.3603 H   0  0  0  0  0  0  0  0  0  0  0  0
    2.7064   -7.5145   38.0510 H   0  0  0  0  0  0  0  0  0  0  0  0
    1.9070   -7.6658   39.6224 H   0  0  0  0  0  0  0  0  0  0  0  0
   -0.8143   -6.5751   35.0784 H   0  0  0  0  0  0  0  0  0  0  0  0
   -1.8835   -8.5526   34.1348 H   0  0  0  0  0  0  0  0  0  0  0  0
   -1.6580   -9.0812   31.7507 H   0  0  0  0  0  0  0  0  0  0  0  0
   -0.4792   -7.5016   30.2199 H   0  0  0  0  0  0  0  0  0  0  0  0
  1  2  1  0
  2  3  2  0
  3  4  1  0
  4  5  2  0
  5  6  1  0
  6  7  2  0
  7  8  1  0
  8  9  2  0
  9 10  1  0
  5 11  1  0
 11 12  2  0
 12 13  1  0
 13 14  1  0
 14 15  1  0
 15 16  1  0
 16 17  2  0
 17 18  1  0
 18 19  1  0
 19 20  2  0
 19 21  1  0
 21 22  1  0
 22 23  1  0
 23 24  1  0
 24 25  2  0
 25 26  1  0
 26 27  1  0
 22 28  1  0
 28 29  1  0
 29 30  1  0
 17 31  1  0
 31 32  2  0
 32 33  1  0
 33 34  2  0
 34 35  1  0
 35 36  2  0
 36 37  1  0
 37 38  2  0
 12  2  1  0
 37 15  1  0
 10  6  1  0
 30 22  1  0
 36 31  1  0
 27 23  2  0
  1 39  1  0
  1 40  1  0
  3 41  1  0
  4 42  1  0
  8 43  1  0
 11 44  1  0
 13 45  1  0
 13 46  1  0
 14 47  1  0
 14 48  1  0
 16 49  1  0
 18 50  1  0
 21 51  1  0
 21 52  1  0
 24 53  1  0
 25 54  1  0
 28 55  1  0
 28 56  1  0
 29 57  1  0
 30 58  1  0
 30 59  1  0
 32 60  1  0
 33 61  1  0
 34 62  1  0
 35 63  1  0
M  END
>  <Energy>  (1107) 
114.58468427869441

>  <compound_id>  (1107) 
4525

>  <target_id>  (1107) 
1

>  <reference_id>  (1107) 
159

>  <inspiration_ids>  (1107) 
[159, 197]

>  <energy_score>  (1107) 
-63.33680099482706

>  <distance_score>  (1107) 
2.040294438499219

>  <path>  (1107) 
/opt/xchem-fragalysis-2/maxwin/BulkDock/SCRATCH/505735/C4525-P159/C4525-P159.minimised.mol

>  <scratch_subdir>  (1107) 
/opt/xchem-fragalysis-2/maxwin/BulkDock/SCRATCH/505735/C4525-P159

>  <fragmenstein_runtime>  (1107) 
7.90428614616394

>  <fragmenstein_outcome>  (1107) 
too moved

>  <fragmenstein_mode>  (1107) 
expansion

>  <fragmenstein_error>  (1107) 


$$$$
C4525-P197
     RDKit          3D

 63 68  0  0  0  0  0  0  0  0999 V2000
   -1.3407   -1.3225   29.0955 N   0  0  0  0  0  0  0  0  0  0  0  0
   -0.8805   -0.1507   29.6972 C   0  0  0  0  0  0  0  0  0  0  0  0
   -0.5139    0.9083   28.8737 C   0  0  0  0  0  0  0  0  0  0  0  0
    0.1760    2.0283   29.3580 C   0  0  0  0  0  0  0  0  0  0  0  0
    0.5158    2.1342   30.7056 C   0  0  0  0  0  0  0  0  0  0  0  0
    1.2232    3.3145   31.1841 C   0  0  0  0  0  0  0  0  0  0  0  0
    1.7346    4.3227   30.5102 N   0  0  0  0  0  0  0  0  0  0  0  0
    2.2131    5.1189   31.5101 C   0  0  0  0  0  0  0  0  0  0  0  0
    2.0454    4.6527   32.7504 N   0  0  0  0  0  0  0  0  0  0  0  0
    1.3786    3.4422   32.5384 O   0  0  0  0  0  0  0  0  0  0  0  0
    0.1520    1.0815   31.5471 C   0  0  0  0  0  0  0  0  0  0  0  0
   -0.5093   -0.0666   31.0470 C   0  0  0  0  0  0  0  0  0  0  0  0
   -0.6079   -1.2556   31.9620 C   0  0  0  0  0  0  0  0  0  0  0  0
    0.7489   -1.9528   31.9368 C   0  0  0  0  0  0  0  0  0  0  0  0
    0.6454   -3.3263   32.3722 N   0  0  0  0  0  0  0  0  0  0  0  0
    0.7632   -3.6261   33.7159 C   0  0  0  0  0  0  0  0  0  0  0  0
    0.6274   -4.8729   34.1854 C   0  0  0  0  0  0  0  0  0  0  0  0
    1.0912   -5.2412   35.4175 N   0  0  0  0  0  0  0  0  0  0  0  0
    1.7745   -4.3921   36.5408 C   0  0  0  0  0  0  0  0  0  0  0  0
    1.9700   -3.2395   36.6071 O   0  0  0  0  0  0  0  0  0  0  0  0
    2.2849   -5.3694   37.5815 C   0  0  0  0  0  0  0  0  0  0  0  0
    1.2625   -5.8835   38.5917 C   0  0  0  0  0  0  0  0  0  0  0  0
    0.9917   -4.8924   39.7657 C   0  0  0  0  0  0  0  0  0  0  0  0
    1.7808   -4.7748   40.9267 C   0  0  0  0  0  0  0  0  0  0  0  0
    1.1671   -3.7749   41.6355 C   0  0  0  0  0  0  0  0  0  0  0  0
    0.0907   -3.3201   40.9466 O   0  0  0  0  0  0  0  0  0  0  0  0
   -0.0204   -4.0211   39.7562 N   0  0  0  0  0  0  0  0  0  0  0  0
   -0.0400   -6.5644   38.0788 C   0  0  0  0  0  0  0  0  0  0  0  0
    0.7613   -7.8030   37.8869 N   0  0  0  0  0  0  0  0  0  0  0  0
    1.5960   -7.3432   39.0381 C   0  0  0  0  0  0  0  0  0  0  0  0
    0.1041   -5.8864   33.2553 C   0  0  0  0  0  0  0  0  0  0  0  0
   -0.5452   -7.0477   33.6766 C   0  0  0  0  0  0  0  0  0  0  0  0
   -0.9945   -7.9671   32.7303 C   0  0  0  0  0  0  0  0  0  0  0  0
   -0.7087   -7.8035   31.3813 C   0  0  0  0  0  0  0  0  0  0  0  0
   -0.1335   -6.6279   30.9429 C   0  0  0  0  0  0  0  0  0  0  0  0
    0.2040   -5.6524   31.8768 C   0  0  0  0  0  0  0  0  0  0  0  0
    0.5155   -4.3000   31.3900 C   0  0  0  0  0  0  0  0  0  0  0  0
    0.5763   -4.0961   30.1830 O   0  0  0  0  0  0  0  0  0  0  0  0
   -1.7757   -1.2303   28.1810 H   0  0  0  0  0  0  0  0  0  0  0  0
   -1.7878   -2.0293   29.6609 H   0  0  0  0  0  0  0  0  0  0  0  0
   -0.7467    0.8338   27.8185 H   0  0  0  0  0  0  0  0  0  0  0  0
    0.4520    2.8247   28.6726 H   0  0  0  0  0  0  0  0  0  0  0  0
    2.7016    6.0668   31.3326 H   0  0  0  0  0  0  0  0  0  0  0  0
    0.4364    1.1079   32.5987 H   0  0  0  0  0  0  0  0  0  0  0  0
   -0.8567   -0.9358   32.9819 H   0  0  0  0  0  0  0  0  0  0  0  0
   -1.4212   -1.9258   31.6646 H   0  0  0  0  0  0  0  0  0  0  0  0
    1.1874   -1.9335   30.9306 H   0  0  0  0  0  0  0  0  0  0  0  0
    1.4666   -1.4222   32.5770 H   0  0  0  0  0  0  0  0  0  0  0  0
    1.0849   -2.8079   34.3545 H   0  0  0  0  0  0  0  0  0  0  0  0
    1.1617   -6.2280   35.6469 H   0  0  0  0  0  0  0  0  0  0  0  0
    3.1185   -4.8821   38.1058 H   0  0  0  0  0  0  0  0  0  0  0  0
    2.7655   -6.1952   37.0383 H   0  0  0  0  0  0  0  0  0  0  0  0
    2.6631   -5.3275   41.2107 H   0  0  0  0  0  0  0  0  0  0  0  0
    1.3522   -3.2914   42.5830 H   0  0  0  0  0  0  0  0  0  0  0  0
   -0.5134   -6.1690   37.1793 H   0  0  0  0  0  0  0  0  0  0  0  0
   -0.8142   -6.6586   38.8481 H   0  0  0  0  0  0  0  0  0  0  0  0
    0.2659   -8.6819   38.0795 H   0  0  0  0  0  0  0  0  0  0  0  0
    2.6454   -7.6486   38.9856 H   0  0  0  0  0  0  0  0  0  0  0  0
    1.1956   -7.6485   40.0139 H   0  0  0  0  0  0  0  0  0  0  0  0
   -0.7454   -7.2324   34.7291 H   0  0  0  0  0  0  0  0  0  0  0  0
   -1.5573   -8.8326   33.0522 H   0  0  0  0  0  0  0  0  0  0  0  0
   -0.9437   -8.5871   30.6735 H   0  0  0  0  0  0  0  0  0  0  0  0
    0.0024   -6.4443   29.8819 H   0  0  0  0  0  0  0  0  0  0  0  0
  1  2  1  0
  2  3  2  0
  3  4  1  0
  4  5  2  0
  5  6  1  0
  6  7  2  0
  7  8  1  0
  8  9  2  0
  9 10  1  0
  5 11  1  0
 11 12  2  0
 12 13  1  0
 13 14  1  0
 14 15  1  0
 15 16  1  0
 16 17  2  0
 17 18  1  0
 18 19  1  0
 19 20  2  0
 19 21  1  0
 21 22  1  0
 22 23  1  0
 23 24  1  0
 24 25  2  0
 25 26  1  0
 26 27  1  0
 22 28  1  0
 28 29  1  0
 29 30  1  0
 17 31  1  0
 31 32  2  0
 32 33  1  0
 33 34  2  0
 34 35  1  0
 35 36  2  0
 36 37  1  0
 37 38  2  0
 12  2  1  0
 37 15  1  0
 10  6  1  0
 30 22  1  0
 36 31  1  0
 27 23  2  0
  1 39  1  0
  1 40  1  0
  3 41  1  0
  4 42  1  0
  8 43  1  0
 11 44  1  0
 13 45  1  0
 13 46  1  0
 14 47  1  0
 14 48  1  0
 16 49  1  0
 18 50  1  0
 21 51  1  0
 21 52  1  0
 24 53  1  0
 25 54  1  0
 28 55  1  0
 28 56  1  0
 29 57  1  0
 30 58  1  0
 30 59  1  0
 32 60  1  0
 33 61  1  0
 34 62  1  0
 35 63  1  0
M  END
>  <Energy>  (1108) 
95.057491012509928

>  <compound_id>  (1108) 
4525

>  <target_id>  (1108) 
1

>  <reference_id>  (1108) 
197

>  <inspiration_ids>  (1108) 
[159, 197]

>  <energy_score>  (1108) 
-82.86399426101389

>  <distance_score>  (1108) 
1.9564579295069038

>  <path>  (1108) 
/opt/xchem-fragalysis-2/maxwin/BulkDock/SCRATCH/505735/C4525-P197/C4525-P197.minimised.mol

>  <scratch_subdir>  (1108) 
/opt/xchem-fragalysis-2/maxwin/BulkDock/SCRATCH/505735/C4525-P197

>  <fragmenstein_runtime>  (1108) 
12.111634969711304

>  <fragmenstein_outcome>  (1108) 
too moved

>  <fragmenstein_mode>  (1108) 
expansion

>  <fragmenstein_error>  (1108) 


$$$$
C4526-P159
     RDKit          3D

 63 65  0  0  0  0  0  0  0  0999 V2000
   -0.2501   -6.4287   40.1282 C   0  0  0  0  0  0  0  0  0  0  0  0
   -0.1985   -6.0409   38.8418 C   0  0  0  0  0  0  0  0  0  0  0  0
    1.0440   -5.8516   37.9924 C   0  0  0  0  0  0  0  0  0  0  0  0
    2.2234   -6.7511   38.3478 C   0  0  0  0  0  0  0  0  0  0  0  0
    3.5813   -6.4762   38.3231 C   0  0  0  0  0  0  0  0  0  0  0  0
    4.2715   -7.6459   38.7173 C   0  0  0  0  0  0  0  0  0  0  0  0
    3.3259   -8.6077   38.9836 C   0  0  0  0  0  0  0  0  0  0  0  0
    2.0862   -8.0597   38.7794 N   0  0  0  0  0  0  0  0  0  0  0  0
    0.8417   -5.7713   36.5233 N   0  0  0  0  0  0  0  0  0  0  0  0
    0.0416   -4.6645   35.9617 C   0  0  0  0  0  0  0  0  0  0  0  0
    0.3714   -4.1283   34.5184 C   0  0  0  0  0  0  0  0  0  0  0  0
   -0.2548   -4.8914   33.3007 C   0  0  0  0  0  0  0  0  0  0  0  0
   -0.1827   -4.2616   31.9161 C   0  0  0  0  0  0  0  0  0  0  0  0
   -0.4843   -2.9176   31.6743 C   0  0  0  0  0  0  0  0  0  0  0  0
   -1.3772   -2.0779   32.3915 N   0  0  0  0  0  0  0  0  0  0  0  0
   -2.0032   -2.4166   33.5817 N   0  0  0  0  0  0  0  0  0  0  0  0
    0.0102   -2.3490   30.4840 C   0  0  0  0  0  0  0  0  0  0  0  0
    0.8008   -3.0494   29.5738 C   0  0  0  0  0  0  0  0  0  0  0  0
    1.0120   -4.4060   29.7432 C   0  0  0  0  0  0  0  0  0  0  0  0
    1.6626   -5.1887   28.7424 N   0  0  0  0  0  0  0  0  0  0  0  0
    2.7970   -4.6770   28.0832 N   0  0  0  0  0  0  0  0  0  0  0  0
    0.3595   -5.0236   30.8313 C   0  0  0  0  0  0  0  0  0  0  0  0
   -0.0361   -6.7670   30.6389 S   0  0  0  0  0  0  0  0  0  0  0  0
    0.9668   -6.9903   35.7572 C   0  0  0  0  0  0  0  0  0  0  0  0
    2.0486   -6.7079   34.8275 N   0  0  0  0  0  0  0  0  0  0  0  0
    3.0452   -7.7368   34.9290 N   0  0  0  0  0  0  0  0  0  0  0  0
   -0.2602   -7.5107   35.1034 C   0  0  0  0  0  0  0  0  0  0  0  0
   -0.4719   -7.8210   33.7723 C   0  0  0  0  0  0  0  0  0  0  0  0
   -1.6993   -8.2515   33.3091 C   0  0  0  0  0  0  0  0  0  0  0  0
   -2.6703   -8.4177   34.2518 C   0  0  0  0  0  0  0  0  0  0  0  0
   -2.5077   -8.1890   35.5482 N   0  0  0  0  0  0  0  0  0  0  0  0
   -1.2960   -7.7696   35.9289 C   0  0  0  0  0  0  0  0  0  0  0  0
    0.6373   -6.6787   40.7014 H   0  0  0  0  0  0  0  0  0  0  0  0
   -1.2002   -6.4566   40.6558 H   0  0  0  0  0  0  0  0  0  0  0  0
   -1.1336   -5.7230   38.3893 H   0  0  0  0  0  0  0  0  0  0  0  0
    1.3913   -4.8436   38.2692 H   0  0  0  0  0  0  0  0  0  0  0  0
    4.0229   -5.5274   38.0450 H   0  0  0  0  0  0  0  0  0  0  0  0
    5.3430   -7.7715   38.8081 H   0  0  0  0  0  0  0  0  0  0  0  0
    3.4203   -9.6320   39.3210 H   0  0  0  0  0  0  0  0  0  0  0  0
    1.2078   -8.5499   38.9161 H   0  0  0  0  0  0  0  0  0  0  0  0
    0.1888   -3.7995   36.6221 H   0  0  0  0  0  0  0  0  0  0  0  0
   -1.0284   -4.8946   36.0206 H   0  0  0  0  0  0  0  0  0  0  0  0
    1.4595   -4.0731   34.3854 H   0  0  0  0  0  0  0  0  0  0  0  0
    0.0735   -3.0789   34.5090 H   0  0  0  0  0  0  0  0  0  0  0  0
   -1.2671   -5.2258   33.5033 H   0  0  0  0  0  0  0  0  0  0  0  0
    0.4100   -5.7343   33.2085 H   0  0  0  0  0  0  0  0  0  0  0  0
   -1.0883   -1.0972   32.3185 H   0  0  0  0  0  0  0  0  0  0  0  0
   -2.4206   -3.3576   33.5736 H   0  0  0  0  0  0  0  0  0  0  0  0
   -2.8000   -1.8021   33.7631 H   0  0  0  0  0  0  0  0  0  0  0  0
   -0.2260   -1.3115   30.2459 H   0  0  0  0  0  0  0  0  0  0  0  0
    1.1518   -2.5198   28.6942 H   0  0  0  0  0  0  0  0  0  0  0  0
    0.9135   -5.4274   28.0800 H   0  0  0  0  0  0  0  0  0  0  0  0
    2.6839   -3.6924   27.8303 H   0  0  0  0  0  0  0  0  0  0  0  0
    3.5875   -4.6757   28.7375 H   0  0  0  0  0  0  0  0  0  0  0  0
   -0.8100   -6.5900   29.5608 H   0  0  0  0  0  0  0  0  0  0  0  0
    1.2516   -7.8266   36.4021 H   0  0  0  0  0  0  0  0  0  0  0  0
    2.4200   -5.8195   35.1820 H   0  0  0  0  0  0  0  0  0  0  0  0
    3.9718   -7.3583   34.6973 H   0  0  0  0  0  0  0  0  0  0  0  0
    3.2011   -8.0256   35.9091 H   0  0  0  0  0  0  0  0  0  0  0  0
    0.3434   -7.7155   33.0791 H   0  0  0  0  0  0  0  0  0  0  0  0
   -1.8792   -8.4962   32.2735 H   0  0  0  0  0  0  0  0  0  0  0  0
   -3.6522   -8.7671   34.0202 H   0  0  0  0  0  0  0  0  0  0  0  0
   -1.1459   -7.5909   36.9794 H   0  0  0  0  0  0  0  0  0  0  0  0
  1  2  2  0
  2  3  1  0
  3  4  1  0
  4  5  2  0
  5  6  1  0
  6  7  2  0
  7  8  1  0
  3  9  1  0
  9 10  1  0
 10 11  1  0
 11 12  1  0
 12 13  1  0
 13 14  2  0
 14 15  1  0
 15 16  1  0
 14 17  1  0
 17 18  2  0
 18 19  1  0
 19 20  1  0
 20 21  1  0
 19 22  2  0
 22 23  1  0
  9 24  1  0
 24 25  1  0
 25 26  1  0
 24 27  1  0
 27 28  2  0
 28 29  1  0
 29 30  2  0
 30 31  1  0
 31 32  2  0
  8  4  1  0
 22 13  1  0
 32 27  1  0
  1 33  1  0
  1 34  1  0
  2 35  1  0
  3 36  1  0
  5 37  1  0
  6 38  1  0
  7 39  1  0
  8 40  1  0
 10 41  1  0
 10 42  1  0
 11 43  1  0
 11 44  1  0
 12 45  1  0
 12 46  1  0
 15 47  1  0
 16 48  1  0
 16 49  1  0
 17 50  1  0
 18 51  1  0
 20 52  1  0
 21 53  1  0
 21 54  1  0
 23 55  1  0
 24 56  1  0
 25 57  1  0
 26 58  1  0
 26 59  1  0
 28 60  1  0
 29 61  1  0
 30 62  1  0
 32 63  1  0
M  END
>  <Energy>  (1109) 
202.22047020428175

>  <compound_id>  (1109) 
4526

>  <target_id>  (1109) 
1

>  <reference_id>  (1109) 
159

>  <inspiration_ids>  (1109) 
[159, 201]

>  <energy_score>  (1109) 
-30.970909372519287

>  <distance_score>  (1109) 
2.4796298938941845

>  <path>  (1109) 
/opt/xchem-fragalysis-2/maxwin/BulkDock/SCRATCH/505735/C4526-P159/C4526-P159.minimised.mol

>  <scratch_subdir>  (1109) 
/opt/xchem-fragalysis-2/maxwin/BulkDock/SCRATCH/505735/C4526-P159

>  <fragmenstein_runtime>  (1109) 
9.597558736801147

>  <fragmenstein_outcome>  (1109) 
too moved

>  <fragmenstein_mode>  (1109) 
expansion

>  <fragmenstein_error>  (1109) 


$$$$
C4526-P201
     RDKit          3D

 63 65  0  0  0  0  0  0  0  0999 V2000
   -0.4184   -6.9099   40.2326 C   0  0  0  0  0  0  0  0  0  0  0  0
    0.0165   -7.4556   39.0836 C   0  0  0  0  0  0  0  0  0  0  0  0
    1.0088   -6.7880   38.1583 C   0  0  0  0  0  0  0  0  0  0  0  0
    2.3826   -7.3407   38.4771 C   0  0  0  0  0  0  0  0  0  0  0  0
    3.5676   -6.7039   38.8026 C   0  0  0  0  0  0  0  0  0  0  0  0
    4.5423   -7.7022   39.0405 C   0  0  0  0  0  0  0  0  0  0  0  0
    3.9274   -8.9225   38.8792 C   0  0  0  0  0  0  0  0  0  0  0  0
    2.6160   -8.6954   38.5551 N   0  0  0  0  0  0  0  0  0  0  0  0
    0.8176   -6.7697   36.6752 N   0  0  0  0  0  0  0  0  0  0  0  0
   -0.4196   -7.3502   36.1244 C   0  0  0  0  0  0  0  0  0  0  0  0
   -1.0798   -7.0010   34.7324 C   0  0  0  0  0  0  0  0  0  0  0  0
   -0.2675   -7.1398   33.4326 C   0  0  0  0  0  0  0  0  0  0  0  0
   -0.3469   -6.2075   32.1839 C   0  0  0  0  0  0  0  0  0  0  0  0
   -0.4020   -4.7945   32.2165 C   0  0  0  0  0  0  0  0  0  0  0  0
   -0.9870   -4.0803   33.2867 N   0  0  0  0  0  0  0  0  0  0  0  0
   -1.1282   -2.6711   33.2086 N   0  0  0  0  0  0  0  0  0  0  0  0
    0.2436   -4.0600   31.1945 C   0  0  0  0  0  0  0  0  0  0  0  0
    0.8885   -4.6699   30.1277 C   0  0  0  0  0  0  0  0  0  0  0  0
    0.8337   -6.0456   29.9975 C   0  0  0  0  0  0  0  0  0  0  0  0
    1.4499   -6.7137   28.8993 N   0  0  0  0  0  0  0  0  0  0  0  0
    2.4592   -6.0657   28.1796 N   0  0  0  0  0  0  0  0  0  0  0  0
    0.0720   -6.7739   30.9486 C   0  0  0  0  0  0  0  0  0  0  0  0
   -0.5402   -8.3770   30.4363 S   0  0  0  0  0  0  0  0  0  0  0  0
    1.3113   -5.4965   36.1466 C   0  0  0  0  0  0  0  0  0  0  0  0
    0.1853   -4.6341   35.7784 N   0  0  0  0  0  0  0  0  0  0  0  0
    0.4940   -3.2408   35.9643 N   0  0  0  0  0  0  0  0  0  0  0  0
    2.4361   -5.6066   35.1212 C   0  0  0  0  0  0  0  0  0  0  0  0
    2.6673   -4.6232   34.1421 C   0  0  0  0  0  0  0  0  0  0  0  0
    3.8791   -4.5497   33.4614 C   0  0  0  0  0  0  0  0  0  0  0  0
    4.8543   -5.4676   33.7818 C   0  0  0  0  0  0  0  0  0  0  0  0
    4.6682   -6.4729   34.6592 N   0  0  0  0  0  0  0  0  0  0  0  0
    3.4737   -6.5157   35.3029 C   0  0  0  0  0  0  0  0  0  0  0  0
   -0.1273   -5.9088   40.5358 H   0  0  0  0  0  0  0  0  0  0  0  0
   -1.0631   -7.4639   40.9064 H   0  0  0  0  0  0  0  0  0  0  0  0
   -0.2443   -8.4813   38.8483 H   0  0  0  0  0  0  0  0  0  0  0  0
    1.0030   -5.7453   38.5113 H   0  0  0  0  0  0  0  0  0  0  0  0
    3.7150   -5.6325   38.8521 H   0  0  0  0  0  0  0  0  0  0  0  0
    5.5802   -7.5453   39.3042 H   0  0  0  0  0  0  0  0  0  0  0  0
    4.3079   -9.9299   38.9724 H   0  0  0  0  0  0  0  0  0  0  0  0
    1.9144   -9.4092   38.3874 H   0  0  0  0  0  0  0  0  0  0  0  0
   -1.2167   -7.1034   36.8283 H   0  0  0  0  0  0  0  0  0  0  0  0
   -0.3042   -8.4376   36.1539 H   0  0  0  0  0  0  0  0  0  0  0  0
   -1.9459   -7.6712   34.6349 H   0  0  0  0  0  0  0  0  0  0  0  0
   -1.5344   -6.0292   34.8286 H   0  0  0  0  0  0  0  0  0  0  0  0
   -0.4434   -8.1704   33.1215 H   0  0  0  0  0  0  0  0  0  0  0  0
    0.7937   -7.1315   33.7004 H   0  0  0  0  0  0  0  0  0  0  0  0
   -1.8210   -4.5530   33.6696 H   0  0  0  0  0  0  0  0  0  0  0  0
   -1.7020   -2.3544   33.9980 H   0  0  0  0  0  0  0  0  0  0  0  0
   -1.6704   -2.4124   32.3797 H   0  0  0  0  0  0  0  0  0  0  0  0
    0.2897   -2.9737   31.2414 H   0  0  0  0  0  0  0  0  0  0  0  0
    1.3912   -4.0542   29.3879 H   0  0  0  0  0  0  0  0  0  0  0  0
    1.5055   -7.7186   29.0902 H   0  0  0  0  0  0  0  0  0  0  0  0
    2.6969   -6.5325   27.3045 H   0  0  0  0  0  0  0  0  0  0  0  0
    3.3097   -5.9275   28.7278 H   0  0  0  0  0  0  0  0  0  0  0  0
   -1.3978   -8.5747   31.4487 H   0  0  0  0  0  0  0  0  0  0  0  0
    1.8435   -4.9586   36.9457 H   0  0  0  0  0  0  0  0  0  0  0  0
    0.0236   -4.7846   34.7776 H   0  0  0  0  0  0  0  0  0  0  0  0
    0.1138   -2.6951   35.1795 H   0  0  0  0  0  0  0  0  0  0  0  0
    0.0315   -2.8826   36.8032 H   0  0  0  0  0  0  0  0  0  0  0  0
    1.9371   -3.8431   33.9454 H   0  0  0  0  0  0  0  0  0  0  0  0
    4.0643   -3.7628   32.7397 H   0  0  0  0  0  0  0  0  0  0  0  0
    5.8344   -5.4323   33.3163 H   0  0  0  0  0  0  0  0  0  0  0  0
    3.4051   -7.3140   36.0330 H   0  0  0  0  0  0  0  0  0  0  0  0
  1  2  2  0
  2  3  1  0
  3  4  1  0
  4  5  2  0
  5  6  1  0
  6  7  2  0
  7  8  1  0
  3  9  1  0
  9 10  1  0
 10 11  1  0
 11 12  1  0
 12 13  1  0
 13 14  2  0
 14 15  1  0
 15 16  1  0
 14 17  1  0
 17 18  2  0
 18 19  1  0
 19 20  1  0
 20 21  1  0
 19 22  2  0
 22 23  1  0
  9 24  1  0
 24 25  1  0
 25 26  1  0
 24 27  1  0
 27 28  2  0
 28 29  1  0
 29 30  2  0
 30 31  1  0
 31 32  2  0
  8  4  1  0
 22 13  1  0
 32 27  1  0
  1 33  1  0
  1 34  1  0
  2 35  1  0
  3 36  1  0
  5 37  1  0
  6 38  1  0
  7 39  1  0
  8 40  1  0
 10 41  1  0
 10 42  1  0
 11 43  1  0
 11 44  1  0
 12 45  1  0
 12 46  1  0
 15 47  1  0
 16 48  1  0
 16 49  1  0
 17 50  1  0
 18 51  1  0
 20 52  1  0
 21 53  1  0
 21 54  1  0
 23 55  1  0
 24 56  1  0
 25 57  1  0
 26 58  1  0
 26 59  1  0
 28 60  1  0
 29 61  1  0
 30 62  1  0
 32 63  1  0
M  END
>  <Energy>  (1110) 
196.65474943808206

>  <compound_id>  (1110) 
4526

>  <target_id>  (1110) 
1

>  <reference_id>  (1110) 
201

>  <inspiration_ids>  (1110) 
[159, 201]

>  <energy_score>  (1110) 
-36.53663013871429

>  <distance_score>  (1110) 
1.9859237406079266

>  <path>  (1110) 
/opt/xchem-fragalysis-2/maxwin/BulkDock/SCRATCH/505735/C4526-P201/C4526-P201.minimised.mol

>  <scratch_subdir>  (1110) 
/opt/xchem-fragalysis-2/maxwin/BulkDock/SCRATCH/505735/C4526-P201

>  <fragmenstein_runtime>  (1110) 
9.499206304550171

>  <fragmenstein_outcome>  (1110) 
too moved

>  <fragmenstein_mode>  (1110) 
expansion

>  <fragmenstein_error>  (1110) 


$$$$
C4527-P159
     RDKit          3D

 56 60  0  0  0  0  0  0  0  0999 V2000
    0.1026   -2.4975   38.7417 C   0  0  0  0  0  0  0  0  0  0  0  0
    0.3034   -3.3259   37.7070 C   0  0  0  0  0  0  0  0  0  0  0  0
   -0.5514   -4.5250   37.4120 C   0  0  0  0  0  0  0  0  0  0  0  0
    0.2035   -5.7129   37.0396 N   0  0  0  0  0  0  0  0  0  0  0  0
    0.5917   -6.0457   35.7578 C   0  0  0  0  0  0  0  0  0  0  0  0
    1.0193   -4.8744   34.5600 S   0  0  0  0  0  0  0  0  0  0  0  0
   -0.1748   -4.7705   33.1542 C   0  0  0  0  0  0  0  0  0  0  0  0
   -0.5380   -6.0836   32.6269 N   0  0  0  0  0  0  0  0  0  0  0  0
   -1.2842   -7.0685   33.1978 C   0  0  0  0  0  0  0  0  0  0  0  0
   -1.5324   -8.0038   32.3071 N   0  0  0  0  0  0  0  0  0  0  0  0
   -0.8924   -7.6571   31.1437 N   0  0  0  0  0  0  0  0  0  0  0  0
   -0.2474   -6.5324   31.3643 C   0  0  0  0  0  0  0  0  0  0  0  0
    0.6134   -5.7801   30.4241 C   0  0  0  0  0  0  0  0  0  0  0  0
    1.3966   -4.6903   31.1391 C   0  0  0  0  0  0  0  0  0  0  0  0
    0.4496   -3.8116   31.9906 C   0  0  0  0  0  0  0  0  0  0  0  0
    1.2865   -2.7812   32.5663 O   0  0  0  0  0  0  0  0  0  0  0  0
   -0.5304   -3.0576   30.9988 C   0  0  0  0  0  0  0  0  0  0  0  0
    0.2837   -2.2688   30.0742 O   0  0  0  0  0  0  0  0  0  0  0  0
   -0.4800   -1.1475   29.5994 C   0  0  0  0  0  0  0  0  0  0  0  0
   -1.8374   -1.2503   30.2537 C   0  0  0  0  0  0  0  0  0  0  0  0
   -1.5726   -2.0695   31.5062 C   0  0  0  0  0  0  0  0  0  0  0  0
   -1.1071   -1.1537   32.6208 C   0  0  0  0  0  0  0  0  0  0  0  0
    0.9855   -7.2985   35.7428 N   0  0  0  0  0  0  0  0  0  0  0  0
    0.9134   -7.7783   37.0216 N   0  0  0  0  0  0  0  0  0  0  0  0
    0.5148   -6.8094   37.8309 C   0  0  0  0  0  0  0  0  0  0  0  0
    0.4356   -6.9598   39.2881 C   0  0  0  0  0  0  0  0  0  0  0  0
    0.2806   -8.2342   39.8452 C   0  0  0  0  0  0  0  0  0  0  0  0
    0.2272   -8.4111   41.2261 C   0  0  0  0  0  0  0  0  0  0  0  0
    0.3513   -7.2948   42.0300 C   0  0  0  0  0  0  0  0  0  0  0  0
    0.5404   -6.0491   41.5470 N   0  0  0  0  0  0  0  0  0  0  0  0
    0.5974   -5.9207   40.1962 C   0  0  0  0  0  0  0  0  0  0  0  0
    0.7531   -1.6416   38.9027 H   0  0  0  0  0  0  0  0  0  0  0  0
   -0.7022   -2.6479   39.4570 H   0  0  0  0  0  0  0  0  0  0  0  0
    1.1271   -3.1064   37.0298 H   0  0  0  0  0  0  0  0  0  0  0  0
   -1.1961   -4.7871   38.2571 H   0  0  0  0  0  0  0  0  0  0  0  0
   -1.2161   -4.2953   36.5709 H   0  0  0  0  0  0  0  0  0  0  0  0
   -1.0856   -4.3026   33.5324 H   0  0  0  0  0  0  0  0  0  0  0  0
   -1.6384   -7.0612   34.2187 H   0  0  0  0  0  0  0  0  0  0  0  0
   -0.0105   -5.3460   29.6414 H   0  0  0  0  0  0  0  0  0  0  0  0
    1.3024   -6.4429   29.9060 H   0  0  0  0  0  0  0  0  0  0  0  0
    2.1600   -5.1273   31.7910 H   0  0  0  0  0  0  0  0  0  0  0  0
    1.9598   -4.0930   30.4117 H   0  0  0  0  0  0  0  0  0  0  0  0
    1.5765   -2.2198   31.8164 H   0  0  0  0  0  0  0  0  0  0  0  0
   -1.0732   -3.7841   30.3892 H   0  0  0  0  0  0  0  0  0  0  0  0
   -0.5386   -1.1805   28.5077 H   0  0  0  0  0  0  0  0  0  0  0  0
    0.0461   -0.2343   29.8942 H   0  0  0  0  0  0  0  0  0  0  0  0
   -2.2900   -0.2718   30.4372 H   0  0  0  0  0  0  0  0  0  0  0  0
   -2.5136   -1.8072   29.5933 H   0  0  0  0  0  0  0  0  0  0  0  0
   -2.4762   -2.5917   31.8403 H   0  0  0  0  0  0  0  0  0  0  0  0
   -0.1983   -0.5998   32.3649 H   0  0  0  0  0  0  0  0  0  0  0  0
   -1.8821   -0.4154   32.8572 H   0  0  0  0  0  0  0  0  0  0  0  0
   -0.9168   -1.7184   33.5390 H   0  0  0  0  0  0  0  0  0  0  0  0
    0.2094   -9.1095   39.2028 H   0  0  0  0  0  0  0  0  0  0  0  0
    0.1032   -9.4017   41.6509 H   0  0  0  0  0  0  0  0  0  0  0  0
    0.3153   -7.3760   43.1124 H   0  0  0  0  0  0  0  0  0  0  0  0
    0.8226   -4.9114   39.8784 H   0  0  0  0  0  0  0  0  0  0  0  0
  1  2  2  0
  2  3  1  0
  3  4  1  0
  4  5  1  0
  5  6  1  0
  6  7  1  0
  7  8  1  0
  8  9  1  0
  9 10  2  0
 10 11  1  0
 11 12  2  0
 12 13  1  0
 13 14  1  0
 14 15  1  0
 15 16  1  0
 15 17  1  0
 17 18  1  0
 18 19  1  0
 19 20  1  0
 20 21  1  0
 21 22  1  0
  5 23  2  0
 23 24  1  0
 24 25  2  0
 25 26  1  0
 26 27  2  0
 27 28  1  0
 28 29  2  0
 29 30  1  0
 30 31  2  0
 25  4  1  0
 31 26  1  0
 15  7  1  0
 21 17  1  0
 12  8  1  0
  1 32  1  0
  1 33  1  0
  2 34  1  0
  3 35  1  0
  3 36  1  0
  7 37  1  0
  9 38  1  0
 13 39  1  0
 13 40  1  0
 14 41  1  0
 14 42  1  0
 16 43  1  0
 17 44  1  0
 19 45  1  0
 19 46  1  0
 20 47  1  0
 20 48  1  0
 21 49  1  0
 22 50  1  0
 22 51  1  0
 22 52  1  0
 27 53  1  0
 28 54  1  0
 29 55  1  0
 31 56  1  0
M  END
>  <Energy>  (1111) 
104.37325810820538

>  <compound_id>  (1111) 
4527

>  <target_id>  (1111) 
1

>  <reference_id>  (1111) 
159

>  <inspiration_ids>  (1111) 
[159, 202]

>  <energy_score>  (1111) 
-55.95736963117159

>  <distance_score>  (1111) 
1.7591399145208093

>  <path>  (1111) 
/opt/xchem-fragalysis-2/maxwin/BulkDock/SCRATCH/505735/C4527-P159/C4527-P159.minimised.mol

>  <scratch_subdir>  (1111) 
/opt/xchem-fragalysis-2/maxwin/BulkDock/SCRATCH/505735/C4527-P159

>  <fragmenstein_runtime>  (1111) 
5.433502197265625

>  <fragmenstein_outcome>  (1111) 
too moved

>  <fragmenstein_mode>  (1111) 
expansion

>  <fragmenstein_error>  (1111) 


$$$$
C4527-P202
     RDKit          3D

 56 60  0  0  0  0  0  0  0  0999 V2000
   -0.3913   -2.3745   38.3876 C   0  0  0  0  0  0  0  0  0  0  0  0
   -0.0514   -3.2376   37.4198 C   0  0  0  0  0  0  0  0  0  0  0  0
   -0.7520   -4.5432   37.1757 C   0  0  0  0  0  0  0  0  0  0  0  0
    0.1469   -5.6625   36.9337 N   0  0  0  0  0  0  0  0  0  0  0  0
    0.6411   -6.0415   35.7029 C   0  0  0  0  0  0  0  0  0  0  0  0
    1.0839   -4.9189   34.4636 S   0  0  0  0  0  0  0  0  0  0  0  0
   -0.1136   -4.8385   33.0620 C   0  0  0  0  0  0  0  0  0  0  0  0
   -0.4879   -6.1584   32.5594 N   0  0  0  0  0  0  0  0  0  0  0  0
   -1.2483   -7.1181   33.1493 C   0  0  0  0  0  0  0  0  0  0  0  0
   -1.5097   -8.0674   32.2774 N   0  0  0  0  0  0  0  0  0  0  0  0
   -0.8547   -7.7622   31.1113 N   0  0  0  0  0  0  0  0  0  0  0  0
   -0.1964   -6.6415   31.3102 C   0  0  0  0  0  0  0  0  0  0  0  0
    0.6851   -5.9293   30.3592 C   0  0  0  0  0  0  0  0  0  0  0  0
    1.4741   -4.8304   31.0597 C   0  0  0  0  0  0  0  0  0  0  0  0
    0.5183   -3.9066   31.8711 C   0  0  0  0  0  0  0  0  0  0  0  0
    1.3395   -2.8510   32.4175 O   0  0  0  0  0  0  0  0  0  0  0  0
   -0.4790   -3.1860   30.8549 C   0  0  0  0  0  0  0  0  0  0  0  0
    0.3206   -2.6776   29.7340 O   0  0  0  0  0  0  0  0  0  0  0  0
   -0.0712   -1.3336   29.4148 C   0  0  0  0  0  0  0  0  0  0  0  0
   -0.5812   -0.7741   30.7111 C   0  0  0  0  0  0  0  0  0  0  0  0
   -1.3213   -1.9733   31.2699 C   0  0  0  0  0  0  0  0  0  0  0  0
   -1.6665   -1.8039   32.7218 C   0  0  0  0  0  0  0  0  0  0  0  0
    1.1329   -7.2562   35.7979 N   0  0  0  0  0  0  0  0  0  0  0  0
    1.0345   -7.6511   37.1037 N   0  0  0  0  0  0  0  0  0  0  0  0
    0.5139   -6.6668   37.8185 C   0  0  0  0  0  0  0  0  0  0  0  0
    0.3711   -6.7149   39.2771 C   0  0  0  0  0  0  0  0  0  0  0  0
    0.2653   -7.9498   39.9258 C   0  0  0  0  0  0  0  0  0  0  0  0
    0.1450   -8.0210   41.3119 C   0  0  0  0  0  0  0  0  0  0  0  0
    0.1546   -6.8395   42.0278 C   0  0  0  0  0  0  0  0  0  0  0  0
    0.2929   -5.6251   41.4559 N   0  0  0  0  0  0  0  0  0  0  0  0
    0.4183   -5.5990   40.1040 C   0  0  0  0  0  0  0  0  0  0  0  0
    0.1509   -1.4412   38.5159 H   0  0  0  0  0  0  0  0  0  0  0  0
   -1.2057   -2.5723   39.0802 H   0  0  0  0  0  0  0  0  0  0  0  0
    0.7728   -2.9684   36.7618 H   0  0  0  0  0  0  0  0  0  0  0  0
   -1.4096   -4.8151   38.0076 H   0  0  0  0  0  0  0  0  0  0  0  0
   -1.3902   -4.4511   36.2891 H   0  0  0  0  0  0  0  0  0  0  0  0
   -1.0244   -4.3755   33.4428 H   0  0  0  0  0  0  0  0  0  0  0  0
   -1.5993   -7.0864   34.1705 H   0  0  0  0  0  0  0  0  0  0  0  0
    0.0742   -5.5038   29.5599 H   0  0  0  0  0  0  0  0  0  0  0  0
    1.3684   -6.6294   29.8764 H   0  0  0  0  0  0  0  0  0  0  0  0
    2.2268   -5.2703   31.7272 H   0  0  0  0  0  0  0  0  0  0  0  0
    2.0613   -4.2626   30.3280 H   0  0  0  0  0  0  0  0  0  0  0  0
    1.7365   -2.3842   31.6551 H   0  0  0  0  0  0  0  0  0  0  0  0
   -1.1601   -3.9360   30.4441 H   0  0  0  0  0  0  0  0  0  0  0  0
   -0.8535   -1.3765   28.6490 H   0  0  0  0  0  0  0  0  0  0  0  0
    0.7865   -0.7843   29.0184 H   0  0  0  0  0  0  0  0  0  0  0  0
    0.2541   -0.4936   31.3629 H   0  0  0  0  0  0  0  0  0  0  0  0
   -1.2186    0.1034   30.5686 H   0  0  0  0  0  0  0  0  0  0  0  0
   -2.2706   -2.0471   30.7254 H   0  0  0  0  0  0  0  0  0  0  0  0
   -0.7826   -1.7497   33.3630 H   0  0  0  0  0  0  0  0  0  0  0  0
   -2.2346   -0.8793   32.8759 H   0  0  0  0  0  0  0  0  0  0  0  0
   -2.2986   -2.6250   33.0692 H   0  0  0  0  0  0  0  0  0  0  0  0
    0.2843   -8.8733   39.3518 H   0  0  0  0  0  0  0  0  0  0  0  0
    0.0577   -8.9812   41.8088 H   0  0  0  0  0  0  0  0  0  0  0  0
    0.0627   -6.8384   43.1099 H   0  0  0  0  0  0  0  0  0  0  0  0
    0.5983   -4.6053   39.7146 H   0  0  0  0  0  0  0  0  0  0  0  0
  1  2  2  0
  2  3  1  0
  3  4  1  0
  4  5  1  0
  5  6  1  0
  6  7  1  0
  7  8  1  0
  8  9  1  0
  9 10  2  0
 10 11  1  0
 11 12  2  0
 12 13  1  0
 13 14  1  0
 14 15  1  0
 15 16  1  0
 15 17  1  0
 17 18  1  0
 18 19  1  0
 19 20  1  0
 20 21  1  0
 21 22  1  0
  5 23  2  0
 23 24  1  0
 24 25  2  0
 25 26  1  0
 26 27  2  0
 27 28  1  0
 28 29  2  0
 29 30  1  0
 30 31  2  0
 25  4  1  0
 31 26  1  0
 15  7  1  0
 21 17  1  0
 12  8  1  0
  1 32  1  0
  1 33  1  0
  2 34  1  0
  3 35  1  0
  3 36  1  0
  7 37  1  0
  9 38  1  0
 13 39  1  0
 13 40  1  0
 14 41  1  0
 14 42  1  0
 16 43  1  0
 17 44  1  0
 19 45  1  0
 19 46  1  0
 20 47  1  0
 20 48  1  0
 21 49  1  0
 22 50  1  0
 22 51  1  0
 22 52  1  0
 27 53  1  0
 28 54  1  0
 29 55  1  0
 31 56  1  0
M  END
>  <Energy>  (1112) 
106.64248856824931

>  <compound_id>  (1112) 
4527

>  <target_id>  (1112) 
1

>  <reference_id>  (1112) 
202

>  <inspiration_ids>  (1112) 
[159, 202]

>  <energy_score>  (1112) 
-53.68813917113117

>  <distance_score>  (1112) 
1.7387327003196105

>  <path>  (1112) 
/opt/xchem-fragalysis-2/maxwin/BulkDock/SCRATCH/505735/C4527-P202/C4527-P202.minimised.mol

>  <scratch_subdir>  (1112) 
/opt/xchem-fragalysis-2/maxwin/BulkDock/SCRATCH/505735/C4527-P202

>  <fragmenstein_runtime>  (1112) 
5.223250150680542

>  <fragmenstein_outcome>  (1112) 
too moved

>  <fragmenstein_mode>  (1112) 
expansion

>  <fragmenstein_error>  (1112) 


$$$$
C4528-P160
     RDKit          3D

 54 58  0  0  0  0  0  0  0  0999 V2000
  -23.1086  -14.9147   30.1272 C   0  0  0  0  0  0  0  0  0  0  0  0
  -23.2743  -14.8012   28.8039 C   0  0  0  0  0  0  0  0  0  0  0  0
  -24.3587  -13.8786   28.2737 C   0  0  0  0  0  0  0  0  0  0  0  0
  -25.4601  -14.5292   27.5781 N   0  0  0  0  0  0  0  0  0  0  0  0
  -25.9633  -14.1700   26.3481 C   0  0  0  0  0  0  0  0  0  0  0  0
  -25.5997  -12.7462   25.4304 S   0  0  0  0  0  0  0  0  0  0  0  0
  -26.1277  -11.4190   26.4376 C   0  0  0  0  0  0  0  0  0  0  0  0
  -26.9644  -11.5379   27.4913 C   0  0  0  0  0  0  0  0  0  0  0  0
  -27.2372  -10.3757   28.3287 C   0  0  0  0  0  0  0  0  0  0  0  0
  -26.6042   -9.2021   28.1589 C   0  0  0  0  0  0  0  0  0  0  0  0
  -25.7077   -9.0662   27.0839 C   0  0  0  0  0  0  0  0  0  0  0  0
  -24.8723   -8.1128   26.7439 N   0  0  0  0  0  0  0  0  0  0  0  0
  -24.4247   -8.4105   25.4866 N   0  0  0  0  0  0  0  0  0  0  0  0
  -24.9787   -9.5469   25.1276 C   0  0  0  0  0  0  0  0  0  0  0  0
  -25.6092  -10.1268   26.1917 N   0  0  0  0  0  0  0  0  0  0  0  0
  -26.7773  -15.1070   25.9251 N   0  0  0  0  0  0  0  0  0  0  0  0
  -26.9711  -15.9870   26.9525 N   0  0  0  0  0  0  0  0  0  0  0  0
  -26.2742  -15.5779   27.9974 C   0  0  0  0  0  0  0  0  0  0  0  0
  -26.3694  -16.1922   29.3158 C   0  0  0  0  0  0  0  0  0  0  0  0
  -26.4622  -17.5749   29.4195 C   0  0  0  0  0  0  0  0  0  0  0  0
  -26.3764  -18.2574   30.5826 N   0  0  0  0  0  0  0  0  0  0  0  0
  -26.1531  -17.5219   31.6899 C   0  0  0  0  0  0  0  0  0  0  0  0
  -26.2402  -16.1325   31.7286 C   0  0  0  0  0  0  0  0  0  0  0  0
  -26.4003  -15.4765   30.5130 C   0  0  0  0  0  0  0  0  0  0  0  0
  -26.5522  -14.1149   30.4716 O   0  0  0  0  0  0  0  0  0  0  0  0
  -26.0066  -15.4665   33.0522 C   0  0  0  0  0  0  0  0  0  0  0  0
  -24.6871  -15.9299   33.6742 C   0  0  0  0  0  0  0  0  0  0  0  0
  -24.3650  -17.4088   33.4159 C   0  0  0  0  0  0  0  0  0  0  0  0
  -23.2675  -17.4685   32.4986 O   0  0  0  0  0  0  0  0  0  0  0  0
  -25.5607  -18.2169   32.8842 C   0  0  0  0  0  0  0  0  0  0  0  0
  -22.4208  -15.4656   27.9422 N   0  0  0  0  0  0  0  0  0  0  0  0
  -22.6388  -15.7326   26.5412 C   0  0  0  0  0  0  0  0  0  0  0  0
  -23.7175  -14.3745   30.8424 H   0  0  0  0  0  0  0  0  0  0  0  0
  -22.3831  -15.6050   30.5217 H   0  0  0  0  0  0  0  0  0  0  0  0
  -24.7960  -13.2565   29.0597 H   0  0  0  0  0  0  0  0  0  0  0  0
  -23.8919  -13.1803   27.5781 H   0  0  0  0  0  0  0  0  0  0  0  0
  -27.4522  -12.4658   27.7741 H   0  0  0  0  0  0  0  0  0  0  0  0
  -27.9529  -10.5019   29.1373 H   0  0  0  0  0  0  0  0  0  0  0  0
  -26.7884   -8.3527   28.8075 H   0  0  0  0  0  0  0  0  0  0  0  0
  -24.9811   -9.9678   24.1382 H   0  0  0  0  0  0  0  0  0  0  0  0
  -26.5497  -18.1987   28.5325 H   0  0  0  0  0  0  0  0  0  0  0  0
  -27.0426  -13.8482   31.2688 H   0  0  0  0  0  0  0  0  0  0  0  0
  -25.9955  -14.3746   32.9755 H   0  0  0  0  0  0  0  0  0  0  0  0
  -26.8430  -15.7185   33.7170 H   0  0  0  0  0  0  0  0  0  0  0  0
  -24.7448  -15.7512   34.7552 H   0  0  0  0  0  0  0  0  0  0  0  0
  -23.8725  -15.2963   33.3022 H   0  0  0  0  0  0  0  0  0  0  0  0
  -24.0070  -17.8609   34.3483 H   0  0  0  0  0  0  0  0  0  0  0  0
  -22.9495  -18.3909   32.4760 H   0  0  0  0  0  0  0  0  0  0  0  0
  -25.2330  -19.2230   32.5977 H   0  0  0  0  0  0  0  0  0  0  0  0
  -26.3310  -18.3160   33.6576 H   0  0  0  0  0  0  0  0  0  0  0  0
  -21.6617  -15.9892   28.3802 H   0  0  0  0  0  0  0  0  0  0  0  0
  -22.8487  -14.8155   25.9862 H   0  0  0  0  0  0  0  0  0  0  0  0
  -23.4732  -16.4283   26.4096 H   0  0  0  0  0  0  0  0  0  0  0  0
  -21.7513  -16.2006   26.1096 H   0  0  0  0  0  0  0  0  0  0  0  0
  1  2  2  0
  2  3  1  0
  3  4  1  0
  4  5  1  0
  5  6  1  0
  6  7  1  0
  7  8  2  0
  8  9  1  0
  9 10  2  0
 10 11  1  0
 11 12  2  0
 12 13  1  0
 13 14  2  0
 14 15  1  0
  5 16  2  0
 16 17  1  0
 17 18  2  0
 18 19  1  0
 19 20  2  0
 20 21  1  0
 21 22  2  0
 22 23  1  0
 23 24  2  0
 24 25  1  0
 23 26  1  0
 26 27  1  0
 27 28  1  0
 28 29  1  0
 28 30  1  0
  2 31  1  0
 31 32  1  0
 18  4  1  0
 24 19  1  0
 15  7  1  0
 30 22  1  0
 15 11  1  0
  1 33  1  0
  1 34  1  0
  3 35  1  0
  3 36  1  0
  8 37  1  0
  9 38  1  0
 10 39  1  0
 14 40  1  0
 20 41  1  0
 25 42  1  0
 26 43  1  0
 26 44  1  0
 27 45  1  0
 27 46  1  0
 28 47  1  0
 29 48  1  0
 30 49  1  0
 30 50  1  0
 31 51  1  0
 32 52  1  0
 32 53  1  0
 32 54  1  0
M  END
>  <Energy>  (1113) 
101.7765565369498

>  <compound_id>  (1113) 
4528

>  <target_id>  (1113) 
1

>  <reference_id>  (1113) 
160

>  <inspiration_ids>  (1113) 
[160, 14]

>  <energy_score>  (1113) 
-45.82834070819922

>  <distance_score>  (1113) 
1.949873870500121

>  <path>  (1113) 
/opt/xchem-fragalysis-2/maxwin/BulkDock/SCRATCH/505735/C4528-P160/C4528-P160.minimised.mol

>  <scratch_subdir>  (1113) 
/opt/xchem-fragalysis-2/maxwin/BulkDock/SCRATCH/505735/C4528-P160

>  <fragmenstein_runtime>  (1113) 
3.022752046585083

>  <fragmenstein_outcome>  (1113) 
too moved

>  <fragmenstein_mode>  (1113) 
expansion

>  <fragmenstein_error>  (1113) 


$$$$
C4528-P14
     RDKit          3D

 54 58  0  0  0  0  0  0  0  0999 V2000
  -22.9092  -15.0127   30.3426 C   0  0  0  0  0  0  0  0  0  0  0  0
  -23.1892  -14.9417   29.0308 C   0  0  0  0  0  0  0  0  0  0  0  0
  -24.3620  -14.0774   28.5644 C   0  0  0  0  0  0  0  0  0  0  0  0
  -25.3699  -14.7423   27.7550 N   0  0  0  0  0  0  0  0  0  0  0  0
  -25.9550  -14.2222   26.6190 C   0  0  0  0  0  0  0  0  0  0  0  0
  -26.9546  -12.7927   26.7897 S   0  0  0  0  0  0  0  0  0  0  0  0
  -26.1313  -11.5003   26.0013 C   0  0  0  0  0  0  0  0  0  0  0  0
  -26.3468  -11.2225   24.6984 C   0  0  0  0  0  0  0  0  0  0  0  0
  -25.8290   -9.9785   24.1322 C   0  0  0  0  0  0  0  0  0  0  0  0
  -25.1224   -9.0965   24.8642 C   0  0  0  0  0  0  0  0  0  0  0  0
  -24.8950   -9.3708   26.2341 C   0  0  0  0  0  0  0  0  0  0  0  0
  -24.2765   -8.7059   27.1833 N   0  0  0  0  0  0  0  0  0  0  0  0
  -24.4994   -9.3654   28.3658 N   0  0  0  0  0  0  0  0  0  0  0  0
  -25.2099  -10.4368   28.1032 C   0  0  0  0  0  0  0  0  0  0  0  0
  -25.4425  -10.5384   26.7585 N   0  0  0  0  0  0  0  0  0  0  0  0
  -26.3840  -15.2612   25.9254 N   0  0  0  0  0  0  0  0  0  0  0  0
  -26.5174  -16.3162   26.8159 N   0  0  0  0  0  0  0  0  0  0  0  0
  -26.0731  -15.9099   27.9920 C   0  0  0  0  0  0  0  0  0  0  0  0
  -26.2608  -16.5478   29.2850 C   0  0  0  0  0  0  0  0  0  0  0  0
  -26.1582  -17.9156   29.4234 C   0  0  0  0  0  0  0  0  0  0  0  0
  -25.9841  -18.5257   30.6147 N   0  0  0  0  0  0  0  0  0  0  0  0
  -25.8402  -17.7288   31.7032 C   0  0  0  0  0  0  0  0  0  0  0  0
  -26.1470  -16.3759   31.7002 C   0  0  0  0  0  0  0  0  0  0  0  0
  -26.4352  -15.8167   30.4621 C   0  0  0  0  0  0  0  0  0  0  0  0
  -26.8326  -14.5027   30.4276 O   0  0  0  0  0  0  0  0  0  0  0  0
  -25.9990  -15.5071   32.9182 C   0  0  0  0  0  0  0  0  0  0  0  0
  -25.4519  -16.2252   34.1469 C   0  0  0  0  0  0  0  0  0  0  0  0
  -24.4600  -17.3164   33.7744 C   0  0  0  0  0  0  0  0  0  0  0  0
  -23.3178  -16.7369   33.1501 O   0  0  0  0  0  0  0  0  0  0  0  0
  -25.1473  -18.3519   32.8793 C   0  0  0  0  0  0  0  0  0  0  0  0
  -22.3551  -15.5780   28.1250 N   0  0  0  0  0  0  0  0  0  0  0  0
  -22.6111  -15.8534   26.7305 C   0  0  0  0  0  0  0  0  0  0  0  0
  -23.5073  -14.5028   31.0904 H   0  0  0  0  0  0  0  0  0  0  0  0
  -22.0680  -15.5864   30.7206 H   0  0  0  0  0  0  0  0  0  0  0  0
  -24.8724  -13.5987   29.4038 H   0  0  0  0  0  0  0  0  0  0  0  0
  -23.9894  -13.2583   27.9479 H   0  0  0  0  0  0  0  0  0  0  0  0
  -26.9453  -11.8600   24.0542 H   0  0  0  0  0  0  0  0  0  0  0  0
  -26.0108   -9.7917   23.0770 H   0  0  0  0  0  0  0  0  0  0  0  0
  -24.7214   -8.1880   24.4278 H   0  0  0  0  0  0  0  0  0  0  0  0
  -25.5650  -11.1482   28.8333 H   0  0  0  0  0  0  0  0  0  0  0  0
  -26.1165  -18.5728   28.5588 H   0  0  0  0  0  0  0  0  0  0  0  0
  -27.5216  -14.4359   29.7391 H   0  0  0  0  0  0  0  0  0  0  0  0
  -25.3111  -14.6876   32.6746 H   0  0  0  0  0  0  0  0  0  0  0  0
  -26.9657  -15.0526   33.1664 H   0  0  0  0  0  0  0  0  0  0  0  0
  -26.2852  -16.6732   34.7036 H   0  0  0  0  0  0  0  0  0  0  0  0
  -24.9848  -15.4879   34.8107 H   0  0  0  0  0  0  0  0  0  0  0  0
  -24.1089  -17.8079   34.6892 H   0  0  0  0  0  0  0  0  0  0  0  0
  -22.6386  -17.4315   33.0682 H   0  0  0  0  0  0  0  0  0  0  0  0
  -24.3988  -19.0652   32.5134 H   0  0  0  0  0  0  0  0  0  0  0  0
  -25.8937  -18.9090   33.4580 H   0  0  0  0  0  0  0  0  0  0  0  0
  -21.6142  -16.1409   28.5450 H   0  0  0  0  0  0  0  0  0  0  0  0
  -23.3897  -16.6143   26.6256 H   0  0  0  0  0  0  0  0  0  0  0  0
  -22.9115  -14.9512   26.1909 H   0  0  0  0  0  0  0  0  0  0  0  0
  -21.7059  -16.2452   26.2601 H   0  0  0  0  0  0  0  0  0  0  0  0
  1  2  2  0
  2  3  1  0
  3  4  1  0
  4  5  1  0
  5  6  1  0
  6  7  1  0
  7  8  2  0
  8  9  1  0
  9 10  2  0
 10 11  1  0
 11 12  2  0
 12 13  1  0
 13 14  2  0
 14 15  1  0
  5 16  2  0
 16 17  1  0
 17 18  2  0
 18 19  1  0
 19 20  2  0
 20 21  1  0
 21 22  2  0
 22 23  1  0
 23 24  2  0
 24 25  1  0
 23 26  1  0
 26 27  1  0
 27 28  1  0
 28 29  1  0
 28 30  1  0
  2 31  1  0
 31 32  1  0
 18  4  1  0
 24 19  1  0
 15  7  1  0
 30 22  1  0
 15 11  1  0
  1 33  1  0
  1 34  1  0
  3 35  1  0
  3 36  1  0
  8 37  1  0
  9 38  1  0
 10 39  1  0
 14 40  1  0
 20 41  1  0
 25 42  1  0
 26 43  1  0
 26 44  1  0
 27 45  1  0
 27 46  1  0
 28 47  1  0
 29 48  1  0
 30 49  1  0
 30 50  1  0
 31 51  1  0
 32 52  1  0
 32 53  1  0
 32 54  1  0
M  END
>  <Energy>  (1114) 
114.78187496566653

>  <compound_id>  (1114) 
4528

>  <target_id>  (1114) 
1

>  <reference_id>  (1114) 
14

>  <inspiration_ids>  (1114) 
[160, 14]

>  <energy_score>  (1114) 
-32.8230222794823

>  <distance_score>  (1114) 
1.634099281010057

>  <path>  (1114) 
/opt/xchem-fragalysis-2/maxwin/BulkDock/SCRATCH/505735/C4528-P14/C4528-P14.minimised.mol

>  <scratch_subdir>  (1114) 
/opt/xchem-fragalysis-2/maxwin/BulkDock/SCRATCH/505735/C4528-P14

>  <fragmenstein_runtime>  (1114) 
3.0205068588256836

>  <fragmenstein_outcome>  (1114) 
too moved

>  <fragmenstein_mode>  (1114) 
expansion

>  <fragmenstein_error>  (1114) 


$$$$
C4529-P160
     RDKit          3D

 69 74  0  0  0  0  0  0  0  0999 V2000
  -22.9440  -21.7257   29.5646 C   0  0  0  0  0  0  0  0  0  0  0  0
  -23.9112  -20.9351   29.0793 C   0  0  0  0  0  0  0  0  0  0  0  0
  -25.2096  -21.4316   28.5134 C   0  0  0  0  0  0  0  0  0  0  0  0
  -25.4029  -21.0563   27.1249 N   0  0  0  0  0  0  0  0  0  0  0  0
  -25.0579  -21.8124   26.0297 C   0  0  0  0  0  0  0  0  0  0  0  0
  -23.9246  -23.1234   26.0570 S   0  0  0  0  0  0  0  0  0  0  0  0
  -22.9845  -22.6363   24.6689 C   0  0  0  0  0  0  0  0  0  0  0  0
  -22.9309  -23.4190   23.5704 C   0  0  0  0  0  0  0  0  0  0  0  0
  -22.1335  -23.0012   22.4244 C   0  0  0  0  0  0  0  0  0  0  0  0
  -21.4316  -21.8519   22.4331 C   0  0  0  0  0  0  0  0  0  0  0  0
  -21.4636  -21.0225   23.5854 C   0  0  0  0  0  0  0  0  0  0  0  0
  -20.8745  -19.8810   23.8798 N   0  0  0  0  0  0  0  0  0  0  0  0
  -21.2535  -19.5232   25.1516 N   0  0  0  0  0  0  0  0  0  0  0  0
  -22.0554  -20.4620   25.5996 C   0  0  0  0  0  0  0  0  0  0  0  0
  -22.2402  -21.4417   24.6594 N   0  0  0  0  0  0  0  0  0  0  0  0
  -25.6018  -21.3082   24.9519 N   0  0  0  0  0  0  0  0  0  0  0  0
  -26.2073  -20.1396   25.3103 N   0  0  0  0  0  0  0  0  0  0  0  0
  -26.0047  -19.9289   26.6004 C   0  0  0  0  0  0  0  0  0  0  0  0
  -26.2553  -18.5803   27.2166 C   0  0  0  0  0  0  0  0  0  0  0  0
  -25.0525  -17.6617   26.9373 C   0  0  0  0  0  0  0  0  0  0  0  0
  -24.9847  -16.4580   27.8718 C   0  0  0  0  0  0  0  0  0  0  0  0
  -26.3486  -16.0191   28.4061 C   0  0  0  0  0  0  0  0  0  0  0  0
  -26.1729  -14.8682   29.4183 C   0  0  0  0  0  0  0  0  0  0  0  0
  -27.5524  -14.2365   29.5529 C   0  0  0  0  0  0  0  0  0  0  0  0
  -28.3286  -14.6383   28.2941 C   0  0  0  0  0  0  0  0  0  0  0  0
  -27.3373  -15.3946   27.3760 C   0  0  0  0  0  0  0  0  0  0  0  0
  -26.7546  -14.3960   26.3244 C   0  0  0  0  0  0  0  0  0  0  0  0
  -26.5360  -13.2667   26.6671 O   0  0  0  0  0  0  0  0  0  0  0  0
  -26.6601  -15.0247   25.0201 N   0  0  0  0  0  0  0  0  0  0  0  0
  -26.3783  -14.4886   23.7648 C   0  0  0  0  0  0  0  0  0  0  0  0
  -26.3656  -13.1196   23.5397 C   0  0  0  0  0  0  0  0  0  0  0  0
  -26.2340  -12.6478   22.2325 C   0  0  0  0  0  0  0  0  0  0  0  0
  -26.0621  -13.5510   21.1913 C   0  0  0  0  0  0  0  0  0  0  0  0
  -26.0271  -14.9064   21.4928 C   0  0  0  0  0  0  0  0  0  0  0  0
  -25.7578  -15.8995   20.3959 C   0  0  0  0  0  0  0  0  0  0  0  0
  -26.2096  -15.3802   22.7575 N   0  0  0  0  0  0  0  0  0  0  0  0
  -27.0462  -17.1444   29.0920 N   0  0  0  0  0  0  0  0  0  0  0  0
  -26.6569  -18.4982   28.6852 C   0  0  0  0  0  0  0  0  0  0  0  0
  -23.0318  -22.8091   29.5707 H   0  0  0  0  0  0  0  0  0  0  0  0
  -22.0394  -21.3023   29.9948 H   0  0  0  0  0  0  0  0  0  0  0  0
  -23.7696  -19.8592   29.1296 H   0  0  0  0  0  0  0  0  0  0  0  0
  -25.2863  -22.5233   28.5799 H   0  0  0  0  0  0  0  0  0  0  0  0
  -26.0535  -21.0467   29.0908 H   0  0  0  0  0  0  0  0  0  0  0  0
  -23.4732  -24.3566   23.4911 H   0  0  0  0  0  0  0  0  0  0  0  0
  -22.1252  -23.6478   21.5510 H   0  0  0  0  0  0  0  0  0  0  0  0
  -20.8390  -21.5391   21.5801 H   0  0  0  0  0  0  0  0  0  0  0  0
  -22.5092  -20.4815   26.5748 H   0  0  0  0  0  0  0  0  0  0  0  0
  -27.1063  -18.1830   26.6447 H   0  0  0  0  0  0  0  0  0  0  0  0
  -24.1069  -18.2130   27.0216 H   0  0  0  0  0  0  0  0  0  0  0  0
  -25.0966  -17.3223   25.8949 H   0  0  0  0  0  0  0  0  0  0  0  0
  -24.3403  -16.7229   28.7223 H   0  0  0  0  0  0  0  0  0  0  0  0
  -24.4689  -15.6337   27.3641 H   0  0  0  0  0  0  0  0  0  0  0  0
  -25.4670  -14.1214   29.0329 H   0  0  0  0  0  0  0  0  0  0  0  0
  -25.7813  -15.1980   30.3875 H   0  0  0  0  0  0  0  0  0  0  0  0
  -27.4759  -13.1481   29.6459 H   0  0  0  0  0  0  0  0  0  0  0  0
  -28.0685  -14.6047   30.4468 H   0  0  0  0  0  0  0  0  0  0  0  0
  -29.1532  -15.3048   28.5773 H   0  0  0  0  0  0  0  0  0  0  0  0
  -28.7831  -13.7669   27.8107 H   0  0  0  0  0  0  0  0  0  0  0  0
  -27.9085  -16.1567   26.8340 H   0  0  0  0  0  0  0  0  0  0  0  0
  -26.8397  -16.0129   25.1158 H   0  0  0  0  0  0  0  0  0  0  0  0
  -26.4912  -12.4093   24.3507 H   0  0  0  0  0  0  0  0  0  0  0  0
  -26.2447  -11.5776   22.0391 H   0  0  0  0  0  0  0  0  0  0  0  0
  -25.9336  -13.1967   20.1745 H   0  0  0  0  0  0  0  0  0  0  0  0
  -25.7796  -16.9216   20.7872 H   0  0  0  0  0  0  0  0  0  0  0  0
  -24.7702  -15.7208   19.9594 H   0  0  0  0  0  0  0  0  0  0  0  0
  -26.5194  -15.8161   19.6145 H   0  0  0  0  0  0  0  0  0  0  0  0
  -26.9986  -17.0527   30.1070 H   0  0  0  0  0  0  0  0  0  0  0  0
  -25.8282  -18.8066   29.3286 H   0  0  0  0  0  0  0  0  0  0  0  0
  -27.4944  -19.1735   28.8923 H   0  0  0  0  0  0  0  0  0  0  0  0
  1  2  2  0
  2  3  1  0
  3  4  1  0
  4  5  1  0
  5  6  1  0
  6  7  1  0
  7  8  2  0
  8  9  1  0
  9 10  2  0
 10 11  1  0
 11 12  2  0
 12 13  1  0
 13 14  2  0
 14 15  1  0
  5 16  2  0
 16 17  1  0
 17 18  2  0
 18 19  1  0
 19 20  1  0
 20 21  1  0
 21 22  1  0
 22 23  1  0
 23 24  1  0
 24 25  1  0
 25 26  1  0
 26 27  1  0
 27 28  2  0
 27 29  1  0
 29 30  1  0
 30 31  2  0
 31 32  1  0
 32 33  2  0
 33 34  1  0
 34 35  1  0
 34 36  2  0
 22 37  1  0
 37 38  1  0
 18  4  1  0
 38 19  1  0
 15  7  1  0
 26 22  1  0
 36 30  1  0
 15 11  1  0
  1 39  1  0
  1 40  1  0
  2 41  1  0
  3 42  1  0
  3 43  1  0
  8 44  1  0
  9 45  1  0
 10 46  1  0
 14 47  1  0
 19 48  1  0
 20 49  1  0
 20 50  1  0
 21 51  1  0
 21 52  1  0
 23 53  1  0
 23 54  1  0
 24 55  1  0
 24 56  1  0
 25 57  1  0
 25 58  1  0
 26 59  1  0
 29 60  1  0
 31 61  1  0
 32 62  1  0
 33 63  1  0
 35 64  1  0
 35 65  1  0
 35 66  1  0
 37 67  1  0
 38 68  1  0
 38 69  1  0
M  END
>  <Energy>  (1115) 
61.773470357909694

>  <compound_id>  (1115) 
4529

>  <target_id>  (1115) 
1

>  <reference_id>  (1115) 
160

>  <inspiration_ids>  (1115) 
[160, 125]

>  <energy_score>  (1115) 
-87.70978424922097

>  <distance_score>  (1115) 
4.010098079407913

>  <path>  (1115) 
/opt/xchem-fragalysis-2/maxwin/BulkDock/SCRATCH/505735/C4529-P160/C4529-P160.minimised.mol

>  <scratch_subdir>  (1115) 
/opt/xchem-fragalysis-2/maxwin/BulkDock/SCRATCH/505735/C4529-P160

>  <fragmenstein_runtime>  (1115) 
65.28446793556213

>  <fragmenstein_outcome>  (1115) 
too moved

>  <fragmenstein_mode>  (1115) 
expansion

>  <fragmenstein_error>  (1115) 


$$$$
C4529-P125
     RDKit          3D

 69 74  0  0  0  0  0  0  0  0999 V2000
  -25.5549  -20.3174   30.5225 C   0  0  0  0  0  0  0  0  0  0  0  0
  -26.3905  -20.7582   29.5719 C   0  0  0  0  0  0  0  0  0  0  0  0
  -25.9650  -21.1558   28.1892 C   0  0  0  0  0  0  0  0  0  0  0  0
  -26.7648  -20.5580   27.1350 N   0  0  0  0  0  0  0  0  0  0  0  0
  -27.1584  -21.1908   25.9829 C   0  0  0  0  0  0  0  0  0  0  0  0
  -26.1483  -22.3206   25.1262 S   0  0  0  0  0  0  0  0  0  0  0  0
  -25.0873  -21.0977   24.4555 C   0  0  0  0  0  0  0  0  0  0  0  0
  -25.5284  -20.2053   23.5419 C   0  0  0  0  0  0  0  0  0  0  0  0
  -24.6712  -19.0994   23.1398 C   0  0  0  0  0  0  0  0  0  0  0  0
  -23.4366  -18.9406   23.6521 C   0  0  0  0  0  0  0  0  0  0  0  0
  -22.9425  -19.8891   24.5853 C   0  0  0  0  0  0  0  0  0  0  0  0
  -21.8181  -19.9653   25.2684 N   0  0  0  0  0  0  0  0  0  0  0  0
  -21.8759  -21.0937   26.0508 N   0  0  0  0  0  0  0  0  0  0  0  0
  -23.0304  -21.6798   25.8236 C   0  0  0  0  0  0  0  0  0  0  0  0
  -23.7767  -20.9462   24.9368 N   0  0  0  0  0  0  0  0  0  0  0  0
  -28.1883  -20.5566   25.4771 N   0  0  0  0  0  0  0  0  0  0  0  0
  -28.2700  -19.3514   26.1341 N   0  0  0  0  0  0  0  0  0  0  0  0
  -27.2548  -19.2781   26.9827 C   0  0  0  0  0  0  0  0  0  0  0  0
  -26.6103  -17.9811   27.3816 C   0  0  0  0  0  0  0  0  0  0  0  0
  -25.0845  -18.0289   27.4195 C   0  0  0  0  0  0  0  0  0  0  0  0
  -24.4774  -16.7890   28.0581 C   0  0  0  0  0  0  0  0  0  0  0  0
  -25.4098  -15.5793   28.1156 C   0  0  0  0  0  0  0  0  0  0  0  0
  -24.6901  -14.4866   28.9505 C   0  0  0  0  0  0  0  0  0  0  0  0
  -25.4095  -13.2059   28.5969 C   0  0  0  0  0  0  0  0  0  0  0  0
  -25.5573  -13.3200   27.0904 C   0  0  0  0  0  0  0  0  0  0  0  0
  -25.7958  -14.8171   26.7761 C   0  0  0  0  0  0  0  0  0  0  0  0
  -25.1527  -15.1898   25.3865 C   0  0  0  0  0  0  0  0  0  0  0  0
  -24.3073  -16.0338   25.3031 O   0  0  0  0  0  0  0  0  0  0  0  0
  -25.8034  -14.3905   24.3552 N   0  0  0  0  0  0  0  0  0  0  0  0
  -25.7020  -14.4341   22.9602 C   0  0  0  0  0  0  0  0  0  0  0  0
  -26.5214  -13.5560   22.2520 C   0  0  0  0  0  0  0  0  0  0  0  0
  -26.4842  -13.5417   20.8573 C   0  0  0  0  0  0  0  0  0  0  0  0
  -25.6391  -14.4162   20.1914 C   0  0  0  0  0  0  0  0  0  0  0  0
  -24.8435  -15.2665   20.9494 C   0  0  0  0  0  0  0  0  0  0  0  0
  -23.8840  -16.1891   20.2519 C   0  0  0  0  0  0  0  0  0  0  0  0
  -24.8511  -15.2625   22.3152 N   0  0  0  0  0  0  0  0  0  0  0  0
  -26.6714  -15.9368   28.8394 N   0  0  0  0  0  0  0  0  0  0  0  0
  -27.1620  -17.3179   28.6393 C   0  0  0  0  0  0  0  0  0  0  0  0
  -24.4876  -20.2066   30.3510 H   0  0  0  0  0  0  0  0  0  0  0  0
  -25.9260  -20.0590   31.5110 H   0  0  0  0  0  0  0  0  0  0  0  0
  -27.4482  -20.8632   29.8110 H   0  0  0  0  0  0  0  0  0  0  0  0
  -24.9139  -20.9388   27.9863 H   0  0  0  0  0  0  0  0  0  0  0  0
  -26.0929  -22.2425   28.1148 H   0  0  0  0  0  0  0  0  0  0  0  0
  -26.5417  -20.2217   23.1477 H   0  0  0  0  0  0  0  0  0  0  0  0
  -25.0828  -18.3560   22.4615 H   0  0  0  0  0  0  0  0  0  0  0  0
  -22.8295  -18.0771   23.3976 H   0  0  0  0  0  0  0  0  0  0  0  0
  -23.3667  -22.6054   26.2673 H   0  0  0  0  0  0  0  0  0  0  0  0
  -26.8705  -17.3131   26.5469 H   0  0  0  0  0  0  0  0  0  0  0  0
  -24.7075  -18.8793   27.9864 H   0  0  0  0  0  0  0  0  0  0  0  0
  -24.7003  -18.1715   26.4054 H   0  0  0  0  0  0  0  0  0  0  0  0
  -23.5300  -16.5398   27.5660 H   0  0  0  0  0  0  0  0  0  0  0  0
  -24.1931  -17.0559   29.0874 H   0  0  0  0  0  0  0  0  0  0  0  0
  -23.6362  -14.4056   28.6515 H   0  0  0  0  0  0  0  0  0  0  0  0
  -24.7040  -14.6798   30.0290 H   0  0  0  0  0  0  0  0  0  0  0  0
  -24.8440  -12.3169   28.8894 H   0  0  0  0  0  0  0  0  0  0  0  0
  -26.3923  -13.1568   29.0790 H   0  0  0  0  0  0  0  0  0  0  0  0
  -24.6397  -12.9668   26.6030 H   0  0  0  0  0  0  0  0  0  0  0  0
  -26.3791  -12.6918   26.7304 H   0  0  0  0  0  0  0  0  0  0  0  0
  -26.8769  -14.9545   26.6196 H   0  0  0  0  0  0  0  0  0  0  0  0
  -26.5295  -13.8328   24.7786 H   0  0  0  0  0  0  0  0  0  0  0  0
  -27.1886  -12.8743   22.7700 H   0  0  0  0  0  0  0  0  0  0  0  0
  -27.1163  -12.8562   20.2995 H   0  0  0  0  0  0  0  0  0  0  0  0
  -25.5957  -14.4247   19.1068 H   0  0  0  0  0  0  0  0  0  0  0  0
  -24.4283  -16.8767   19.5973 H   0  0  0  0  0  0  0  0  0  0  0  0
  -23.3210  -16.7821   20.9791 H   0  0  0  0  0  0  0  0  0  0  0  0
  -23.1689  -15.6119   19.6575 H   0  0  0  0  0  0  0  0  0  0  0  0
  -26.5755  -15.7701   29.8413 H   0  0  0  0  0  0  0  0  0  0  0  0
  -26.8945  -17.9082   29.5217 H   0  0  0  0  0  0  0  0  0  0  0  0
  -28.2572  -17.2869   28.6099 H   0  0  0  0  0  0  0  0  0  0  0  0
  1  2  2  0
  2  3  1  0
  3  4  1  0
  4  5  1  0
  5  6  1  0
  6  7  1  0
  7  8  2  0
  8  9  1  0
  9 10  2  0
 10 11  1  0
 11 12  2  0
 12 13  1  0
 13 14  2  0
 14 15  1  0
  5 16  2  0
 16 17  1  0
 17 18  2  0
 18 19  1  0
 19 20  1  0
 20 21  1  0
 21 22  1  0
 22 23  1  0
 23 24  1  0
 24 25  1  0
 25 26  1  0
 26 27  1  0
 27 28  2  0
 27 29  1  0
 29 30  1  0
 30 31  2  0
 31 32  1  0
 32 33  2  0
 33 34  1  0
 34 35  1  0
 34 36  2  0
 22 37  1  0
 37 38  1  0
 18  4  1  0
 38 19  1  0
 15  7  1  0
 26 22  1  0
 36 30  1  0
 15 11  1  0
  1 39  1  0
  1 40  1  0
  2 41  1  0
  3 42  1  0
  3 43  1  0
  8 44  1  0
  9 45  1  0
 10 46  1  0
 14 47  1  0
 19 48  1  0
 20 49  1  0
 20 50  1  0
 21 51  1  0
 21 52  1  0
 23 53  1  0
 23 54  1  0
 24 55  1  0
 24 56  1  0
 25 57  1  0
 25 58  1  0
 26 59  1  0
 29 60  1  0
 31 61  1  0
 32 62  1  0
 33 63  1  0
 35 64  1  0
 35 65  1  0
 35 66  1  0
 37 67  1  0
 38 68  1  0
 38 69  1  0
M  END
>  <Energy>  (1116) 
81.103822911667578

>  <compound_id>  (1116) 
4529

>  <target_id>  (1116) 
1

>  <reference_id>  (1116) 
125

>  <inspiration_ids>  (1116) 
[160, 125]

>  <energy_score>  (1116) 
-68.37943169546165

>  <distance_score>  (1116) 
3.722200617079305

>  <path>  (1116) 
/opt/xchem-fragalysis-2/maxwin/BulkDock/SCRATCH/505735/C4529-P125/C4529-P125.minimised.mol

>  <scratch_subdir>  (1116) 
/opt/xchem-fragalysis-2/maxwin/BulkDock/SCRATCH/505735/C4529-P125

>  <fragmenstein_runtime>  (1116) 
70.45980596542358

>  <fragmenstein_outcome>  (1116) 
too moved

>  <fragmenstein_mode>  (1116) 
expansion

>  <fragmenstein_error>  (1116) 


$$$$
C4530-P161
     RDKit          3D

 51 55  0  0  0  0  0  0  0  0999 V2000
  -16.9895  -20.0358   34.1153 C   0  0  0  0  0  0  0  0  0  0  0  0
  -17.0137  -20.4885   32.8542 C   0  0  0  0  0  0  0  0  0  0  0  0
  -17.3574  -21.8548   32.3171 C   0  0  0  0  0  0  0  0  0  0  0  0
  -17.8687  -22.8812   33.2167 N   0  0  0  0  0  0  0  0  0  0  0  0
  -17.4219  -24.1698   33.4118 C   0  0  0  0  0  0  0  0  0  0  0  0
  -15.7888  -24.7111   33.5981 S   0  0  0  0  0  0  0  0  0  0  0  0
  -15.0216  -24.3240   32.0878 C   0  0  0  0  0  0  0  0  0  0  0  0
  -14.1675  -23.2593   31.9065 C   0  0  0  0  0  0  0  0  0  0  0  0
  -13.7274  -22.2832   33.0455 C   0  0  0  0  0  0  0  0  0  0  0  0
  -14.4913  -21.9175   34.1585 C   0  0  0  0  0  0  0  0  0  0  0  0
  -14.0432  -21.0527   35.1755 C   0  0  0  0  0  0  0  0  0  0  0  0
  -14.8616  -20.7836   36.2033 F   0  0  0  0  0  0  0  0  0  0  0  0
  -12.8023  -20.4684   35.1371 C   0  0  0  0  0  0  0  0  0  0  0  0
  -11.9826  -20.8265   34.0959 C   0  0  0  0  0  0  0  0  0  0  0  0
  -12.4289  -21.7523   33.1157 C   0  0  0  0  0  0  0  0  0  0  0  0
  -11.3674  -22.2803   32.2416 C   0  0  0  0  0  0  0  0  0  0  0  0
  -13.6235  -23.1646   30.4923 C   0  0  0  0  0  0  0  0  0  0  0  0
  -12.9619  -22.0175   30.1413 O   0  0  0  0  0  0  0  0  0  0  0  0
  -13.7688  -24.1024   29.5490 C   0  0  0  0  0  0  0  0  0  0  0  0
  -14.5898  -25.1993   29.8010 C   0  0  0  0  0  0  0  0  0  0  0  0
  -14.9555  -26.1930   29.0275 N   0  0  0  0  0  0  0  0  0  0  0  0
  -15.8150  -26.9703   29.7516 N   0  0  0  0  0  0  0  0  0  0  0  0
  -15.9437  -26.4228   30.9418 C   0  0  0  0  0  0  0  0  0  0  0  0
  -15.2033  -25.2664   31.0369 N   0  0  0  0  0  0  0  0  0  0  0  0
  -18.4154  -24.9063   33.8580 N   0  0  0  0  0  0  0  0  0  0  0  0
  -19.4686  -24.0792   34.1317 N   0  0  0  0  0  0  0  0  0  0  0  0
  -19.1162  -22.8489   33.8227 C   0  0  0  0  0  0  0  0  0  0  0  0
  -19.8285  -21.6453   34.2122 C   0  0  0  0  0  0  0  0  0  0  0  0
  -19.9455  -21.3248   35.5672 C   0  0  0  0  0  0  0  0  0  0  0  0
  -20.4501  -20.0840   35.9391 C   0  0  0  0  0  0  0  0  0  0  0  0
  -20.8295  -19.2062   34.9373 C   0  0  0  0  0  0  0  0  0  0  0  0
  -20.7776  -19.4949   33.6153 N   0  0  0  0  0  0  0  0  0  0  0  0
  -20.3056  -20.7236   33.2914 C   0  0  0  0  0  0  0  0  0  0  0  0
  -16.7114  -19.0130   34.3523 H   0  0  0  0  0  0  0  0  0  0  0  0
  -17.2157  -20.6616   34.9729 H   0  0  0  0  0  0  0  0  0  0  0  0
  -16.7492  -19.7812   32.0721 H   0  0  0  0  0  0  0  0  0  0  0  0
  -18.1320  -21.7312   31.5491 H   0  0  0  0  0  0  0  0  0  0  0  0
  -16.4995  -22.2457   31.7847 H   0  0  0  0  0  0  0  0  0  0  0  0
  -15.4850  -22.2892   34.3292 H   0  0  0  0  0  0  0  0  0  0  0  0
  -12.4727  -19.7894   35.9133 H   0  0  0  0  0  0  0  0  0  0  0  0
  -10.9629  -20.4453   34.0613 H   0  0  0  0  0  0  0  0  0  0  0  0
  -10.4368  -22.4109   32.7989 H   0  0  0  0  0  0  0  0  0  0  0  0
  -11.2692  -21.6063   31.4010 H   0  0  0  0  0  0  0  0  0  0  0  0
  -11.6091  -23.2710   31.8834 H   0  0  0  0  0  0  0  0  0  0  0  0
  -12.4621  -22.1473   29.3141 H   0  0  0  0  0  0  0  0  0  0  0  0
  -13.3530  -24.0048   28.5530 H   0  0  0  0  0  0  0  0  0  0  0  0
  -16.5436  -26.8147   31.7507 H   0  0  0  0  0  0  0  0  0  0  0  0
  -19.6009  -22.0204   36.3298 H   0  0  0  0  0  0  0  0  0  0  0  0
  -20.5201  -19.7978   36.9826 H   0  0  0  0  0  0  0  0  0  0  0  0
  -21.1975  -18.2148   35.1852 H   0  0  0  0  0  0  0  0  0  0  0  0
  -20.2960  -20.9362   32.2257 H   0  0  0  0  0  0  0  0  0  0  0  0
  1  2  2  0
  2  3  1  0
  3  4  1  0
  4  5  1  0
  5  6  1  0
  6  7  1  0
  7  8  2  0
  8  9  1  0
  9 10  2  0
 10 11  1  0
 11 12  1  0
 11 13  2  0
 13 14  1  0
 14 15  2  0
 15 16  1  0
  8 17  1  0
 17 18  1  0
 17 19  2  0
 19 20  1  0
 20 21  2  0
 21 22  1  0
 22 23  2  0
 23 24  1  0
  5 25  2  0
 25 26  1  0
 26 27  2  0
 27 28  1  0
 28 29  2  0
 29 30  1  0
 30 31  2  0
 31 32  1  0
 32 33  2  0
 27  4  1  0
 33 28  1  0
 24  7  1  0
 15  9  1  0
 24 20  1  0
  1 34  1  0
  1 35  1  0
  2 36  1  0
  3 37  1  0
  3 38  1  0
 10 39  1  0
 13 40  1  0
 14 41  1  0
 16 42  1  0
 16 43  1  0
 16 44  1  0
 18 45  1  0
 19 46  1  0
 23 47  1  0
 29 48  1  0
 30 49  1  0
 31 50  1  0
 33 51  1  0
M  END
>  <Energy>  (1117) 
135.14870075961019

>  <compound_id>  (1117) 
4530

>  <target_id>  (1117) 
1

>  <reference_id>  (1117) 
161

>  <inspiration_ids>  (1117) 
[161, 3]

>  <energy_score>  (1117) 
17.500822140513264

>  <distance_score>  (1117) 
4.087226201626479

>  <path>  (1117) 
/opt/xchem-fragalysis-2/maxwin/BulkDock/SCRATCH/505735/C4530-P161/C4530-P161.minimised.mol

>  <scratch_subdir>  (1117) 
/opt/xchem-fragalysis-2/maxwin/BulkDock/SCRATCH/505735/C4530-P161

>  <fragmenstein_runtime>  (1117) 
56.44291949272156

>  <fragmenstein_outcome>  (1117) 
too moved

>  <fragmenstein_mode>  (1117) 
expansion

>  <fragmenstein_error>  (1117) 


$$$$
C4530-P3
     RDKit          3D

 51 55  0  0  0  0  0  0  0  0999 V2000
  -15.4022  -22.5172   36.2721 C   0  0  0  0  0  0  0  0  0  0  0  0
  -15.7272  -22.6913   34.9867 C   0  0  0  0  0  0  0  0  0  0  0  0
  -15.8224  -23.9960   34.1727 C   0  0  0  0  0  0  0  0  0  0  0  0
  -15.9883  -23.8964   32.7004 N   0  0  0  0  0  0  0  0  0  0  0  0
  -15.4499  -24.5191   31.5138 C   0  0  0  0  0  0  0  0  0  0  0  0
  -13.7348  -25.3247   31.0192 S   0  0  0  0  0  0  0  0  0  0  0  0
  -12.8469  -24.2249   29.5582 C   0  0  0  0  0  0  0  0  0  0  0  0
  -11.7797  -23.2864   29.6681 C   0  0  0  0  0  0  0  0  0  0  0  0
  -11.0854  -22.6371   30.8736 C   0  0  0  0  0  0  0  0  0  0  0  0
  -11.3094  -21.2606   31.1273 C   0  0  0  0  0  0  0  0  0  0  0  0
  -10.6294  -20.5664   32.1222 C   0  0  0  0  0  0  0  0  0  0  0  0
  -10.8693  -19.2610   32.2910 F   0  0  0  0  0  0  0  0  0  0  0  0
   -9.6275  -21.1808   32.8376 C   0  0  0  0  0  0  0  0  0  0  0  0
   -9.3380  -22.5018   32.5756 C   0  0  0  0  0  0  0  0  0  0  0  0
  -10.0716  -23.2247   31.6161 C   0  0  0  0  0  0  0  0  0  0  0  0
   -9.6941  -24.6325   31.4546 C   0  0  0  0  0  0  0  0  0  0  0  0
  -11.3248  -22.6332   28.3835 C   0  0  0  0  0  0  0  0  0  0  0  0
  -10.2687  -21.7403   28.4132 O   0  0  0  0  0  0  0  0  0  0  0  0
  -11.9076  -22.8173   27.2037 C   0  0  0  0  0  0  0  0  0  0  0  0
  -12.9859  -23.6903   27.1136 C   0  0  0  0  0  0  0  0  0  0  0  0
  -13.7209  -23.9995   26.0768 N   0  0  0  0  0  0  0  0  0  0  0  0
  -14.6123  -24.9433   26.4866 N   0  0  0  0  0  0  0  0  0  0  0  0
  -14.4232  -25.1561   27.7717 C   0  0  0  0  0  0  0  0  0  0  0  0
  -13.3987  -24.3869   28.2496 N   0  0  0  0  0  0  0  0  0  0  0  0
  -16.2840  -24.2589   30.5344 N   0  0  0  0  0  0  0  0  0  0  0  0
  -17.2598  -23.3953   30.9729 N   0  0  0  0  0  0  0  0  0  0  0  0
  -17.0750  -23.1178   32.2422 C   0  0  0  0  0  0  0  0  0  0  0  0
  -17.8489  -22.1371   33.0439 C   0  0  0  0  0  0  0  0  0  0  0  0
  -18.7489  -22.5210   34.0456 C   0  0  0  0  0  0  0  0  0  0  0  0
  -19.2685  -21.5673   34.9299 C   0  0  0  0  0  0  0  0  0  0  0  0
  -18.8915  -20.2428   34.7788 C   0  0  0  0  0  0  0  0  0  0  0  0
  -18.0747  -19.8154   33.7964 N   0  0  0  0  0  0  0  0  0  0  0  0
  -17.5919  -20.7659   32.9475 C   0  0  0  0  0  0  0  0  0  0  0  0
  -15.1877  -23.3499   36.9334 H   0  0  0  0  0  0  0  0  0  0  0  0
  -15.3628  -21.5212   36.7001 H   0  0  0  0  0  0  0  0  0  0  0  0
  -15.8688  -21.7512   34.4689 H   0  0  0  0  0  0  0  0  0  0  0  0
  -15.0881  -24.7519   34.4167 H   0  0  0  0  0  0  0  0  0  0  0  0
  -16.7591  -24.4793   34.4894 H   0  0  0  0  0  0  0  0  0  0  0  0
  -12.0112  -20.6819   30.5355 H   0  0  0  0  0  0  0  0  0  0  0  0
   -9.0319  -20.6219   33.5379 H   0  0  0  0  0  0  0  0  0  0  0  0
   -8.5172  -22.9760   33.1073 H   0  0  0  0  0  0  0  0  0  0  0  0
  -10.2854  -25.1470   30.6955 H   0  0  0  0  0  0  0  0  0  0  0  0
   -9.8489  -25.1325   32.4155 H   0  0  0  0  0  0  0  0  0  0  0  0
   -8.6414  -24.6503   31.1708 H   0  0  0  0  0  0  0  0  0  0  0  0
   -9.7600  -21.8390   29.2314 H   0  0  0  0  0  0  0  0  0  0  0  0
  -11.5638  -22.3044   26.3116 H   0  0  0  0  0  0  0  0  0  0  0  0
  -15.0074  -25.8309   28.3803 H   0  0  0  0  0  0  0  0  0  0  0  0
  -19.0196  -23.5658   34.1724 H   0  0  0  0  0  0  0  0  0  0  0  0
  -19.9429  -21.8591   35.7275 H   0  0  0  0  0  0  0  0  0  0  0  0
  -19.2582  -19.4722   35.4498 H   0  0  0  0  0  0  0  0  0  0  0  0
  -16.9285  -20.3773   32.1811 H   0  0  0  0  0  0  0  0  0  0  0  0
  1  2  2  0
  2  3  1  0
  3  4  1  0
  4  5  1  0
  5  6  1  0
  6  7  1  0
  7  8  2  0
  8  9  1  0
  9 10  2  0
 10 11  1  0
 11 12  1  0
 11 13  2  0
 13 14  1  0
 14 15  2  0
 15 16  1  0
  8 17  1  0
 17 18  1  0
 17 19  2  0
 19 20  1  0
 20 21  2  0
 21 22  1  0
 22 23  2  0
 23 24  1  0
  5 25  2  0
 25 26  1  0
 26 27  2  0
 27 28  1  0
 28 29  2  0
 29 30  1  0
 30 31  2  0
 31 32  1  0
 32 33  2  0
 27  4  1  0
 33 28  1  0
 24  7  1  0
 15  9  1  0
 24 20  1  0
  1 34  1  0
  1 35  1  0
  2 36  1  0
  3 37  1  0
  3 38  1  0
 10 39  1  0
 13 40  1  0
 14 41  1  0
 16 42  1  0
 16 43  1  0
 16 44  1  0
 18 45  1  0
 19 46  1  0
 23 47  1  0
 29 48  1  0
 30 49  1  0
 31 50  1  0
 33 51  1  0
M  END
>  <Energy>  (1118) 
176.68256594666641

>  <compound_id>  (1118) 
4530

>  <target_id>  (1118) 
1

>  <reference_id>  (1118) 
3

>  <inspiration_ids>  (1118) 
[161, 3]

>  <energy_score>  (1118) 
-70.62847360891783

>  <distance_score>  (1118) 
2.5421382927443763

>  <path>  (1118) 
/opt/xchem-fragalysis-2/maxwin/BulkDock/SCRATCH/505735/C4530-P3/C4530-P3.minimised.mol

>  <scratch_subdir>  (1118) 
/opt/xchem-fragalysis-2/maxwin/BulkDock/SCRATCH/505735/C4530-P3

>  <fragmenstein_runtime>  (1118) 
34.04049038887024

>  <fragmenstein_outcome>  (1118) 
too moved

>  <fragmenstein_mode>  (1118) 
expansion

>  <fragmenstein_error>  (1118) 


$$$$
C548-P161
     RDKit          3D

 63 67  0  0  0  0  0  0  0  0999 V2000
  -17.9570  -27.5162   33.4106 C   0  0  0  0  0  0  0  0  0  0  0  0
  -17.1014  -27.1716   34.3829 C   0  0  0  0  0  0  0  0  0  0  0  0
  -16.3357  -25.8993   34.6456 C   0  0  0  0  0  0  0  0  0  0  0  0
  -16.2866  -24.8703   33.6301 N   0  0  0  0  0  0  0  0  0  0  0  0
  -16.4717  -24.9393   32.2791 C   0  0  0  0  0  0  0  0  0  0  0  0
  -15.6534  -26.0364   31.2275 S   0  0  0  0  0  0  0  0  0  0  0  0
  -14.3701  -24.9380   30.7736 C   0  0  0  0  0  0  0  0  0  0  0  0
  -13.6434  -24.2341   31.6730 C   0  0  0  0  0  0  0  0  0  0  0  0
  -12.6833  -23.2417   31.2252 C   0  0  0  0  0  0  0  0  0  0  0  0
  -12.4126  -23.0856   29.9184 C   0  0  0  0  0  0  0  0  0  0  0  0
  -13.0224  -23.9436   28.9721 C   0  0  0  0  0  0  0  0  0  0  0  0
  -12.8413  -24.1193   27.6813 N   0  0  0  0  0  0  0  0  0  0  0  0
  -13.7189  -25.0932   27.2582 N   0  0  0  0  0  0  0  0  0  0  0  0
  -14.4299  -25.4701   28.2970 C   0  0  0  0  0  0  0  0  0  0  0  0
  -14.0219  -24.8015   29.4229 N   0  0  0  0  0  0  0  0  0  0  0  0
  -17.1446  -23.8745   31.9188 N   0  0  0  0  0  0  0  0  0  0  0  0
  -16.9204  -22.9416   32.8878 N   0  0  0  0  0  0  0  0  0  0  0  0
  -16.2028  -23.5120   33.8459 C   0  0  0  0  0  0  0  0  0  0  0  0
  -15.3225  -22.7799   34.7466 C   0  0  0  0  0  0  0  0  0  0  0  0
  -14.4359  -21.8527   34.1831 C   0  0  0  0  0  0  0  0  0  0  0  0
  -13.8249  -20.8846   34.9708 C   0  0  0  0  0  0  0  0  0  0  0  0
  -14.1752  -20.8305   36.3115 C   0  0  0  0  0  0  0  0  0  0  0  0
  -14.1726  -19.5805   36.9703 N   0  0  0  0  0  0  0  0  0  0  0  0
  -15.2007  -18.6362   36.4309 C   0  0  0  0  0  0  0  0  0  0  0  0
  -16.5125  -19.3040   36.0404 C   0  0  0  0  0  0  0  0  0  0  0  0
  -16.8679  -19.5018   34.7046 C   0  0  0  0  0  0  0  0  0  0  0  0
  -17.8216  -20.4602   34.3472 C   0  0  0  0  0  0  0  0  0  0  0  0
  -18.4280  -21.2452   35.3286 C   0  0  0  0  0  0  0  0  0  0  0  0
  -19.0837  -22.4148   34.9159 N   0  0  0  0  0  0  0  0  0  0  0  0
  -19.7145  -23.5669   35.7496 C   0  0  0  0  0  0  0  0  0  0  0  0
  -19.8519  -23.6781   36.9062 O   0  0  0  0  0  0  0  0  0  0  0  0
  -20.0780  -24.6916   34.7903 C   0  0  0  0  0  0  0  0  0  0  0  0
  -20.0642  -26.0261   35.5404 C   0  0  0  0  0  0  0  0  0  0  0  0
  -18.1571  -20.9363   36.6590 C   0  0  0  0  0  0  0  0  0  0  0  0
  -18.5962  -21.6250   37.7360 O   0  0  0  0  0  0  0  0  0  0  0  0
  -17.2514  -19.9500   37.0157 C   0  0  0  0  0  0  0  0  0  0  0  0
  -14.8328  -21.8471   36.9129 N   0  0  0  0  0  0  0  0  0  0  0  0
  -15.4191  -22.7821   36.1230 C   0  0  0  0  0  0  0  0  0  0  0  0
  -18.4180  -28.5008   33.4148 H   0  0  0  0  0  0  0  0  0  0  0  0
  -18.2586  -26.8545   32.6075 H   0  0  0  0  0  0  0  0  0  0  0  0
  -16.9391  -27.9221   35.1552 H   0  0  0  0  0  0  0  0  0  0  0  0
  -16.7928  -25.4396   35.5300 H   0  0  0  0  0  0  0  0  0  0  0  0
  -15.3143  -26.1315   34.9236 H   0  0  0  0  0  0  0  0  0  0  0  0
  -13.7465  -24.3525   32.7424 H   0  0  0  0  0  0  0  0  0  0  0  0
  -12.1955  -22.6208   31.9740 H   0  0  0  0  0  0  0  0  0  0  0  0
  -11.7312  -22.3257   29.5546 H   0  0  0  0  0  0  0  0  0  0  0  0
  -15.2102  -26.2158   28.2934 H   0  0  0  0  0  0  0  0  0  0  0  0
  -14.3190  -21.7945   33.1052 H   0  0  0  0  0  0  0  0  0  0  0  0
  -13.2478  -20.0913   34.5091 H   0  0  0  0  0  0  0  0  0  0  0  0
  -13.2528  -19.1662   36.8489 H   0  0  0  0  0  0  0  0  0  0  0  0
  -15.4013  -17.8779   37.1968 H   0  0  0  0  0  0  0  0  0  0  0  0
  -14.7816  -18.1023   35.5682 H   0  0  0  0  0  0  0  0  0  0  0  0
  -16.2993  -19.0210   33.9192 H   0  0  0  0  0  0  0  0  0  0  0  0
  -18.0066  -20.6453   33.2922 H   0  0  0  0  0  0  0  0  0  0  0  0
  -19.0529  -22.6824   33.9345 H   0  0  0  0  0  0  0  0  0  0  0  0
  -19.3635  -24.7398   33.9647 H   0  0  0  0  0  0  0  0  0  0  0  0
  -21.0741  -24.4928   34.3828 H   0  0  0  0  0  0  0  0  0  0  0  0
  -20.2677  -26.8527   34.8548 H   0  0  0  0  0  0  0  0  0  0  0  0
  -20.8484  -26.0416   36.3060 H   0  0  0  0  0  0  0  0  0  0  0  0
  -19.1132  -26.1962   36.0512 H   0  0  0  0  0  0  0  0  0  0  0  0
  -19.2384  -22.3069   37.4684 H   0  0  0  0  0  0  0  0  0  0  0  0
  -16.9844  -19.8309   38.0645 H   0  0  0  0  0  0  0  0  0  0  0  0
  -16.0749  -23.4587   36.6602 H   0  0  0  0  0  0  0  0  0  0  0  0
  1  2  2  0
  2  3  1  0
  3  4  1  0
  4  5  1  0
  5  6  1  0
  6  7  1  0
  7  8  2  0
  8  9  1  0
  9 10  2  0
 10 11  1  0
 11 12  2  0
 12 13  1  0
 13 14  2  0
 14 15  1  0
  5 16  2  0
 16 17  1  0
 17 18  2  0
 18 19  1  0
 19 20  2  0
 20 21  1  0
 21 22  2  0
 22 23  1  0
 23 24  1  0
 24 25  1  0
 25 26  2  0
 26 27  1  0
 27 28  2  0
 28 29  1  0
 29 30  1  0
 30 31  2  0
 30 32  1  0
 32 33  1  0
 28 34  1  0
 34 35  1  0
 34 36  2  0
 22 37  1  0
 37 38  2  0
 18  4  1  0
 38 19  1  0
 15  7  1  0
 36 25  1  0
 15 11  1  0
  1 39  1  0
  1 40  1  0
  2 41  1  0
  3 42  1  0
  3 43  1  0
  8 44  1  0
  9 45  1  0
 10 46  1  0
 14 47  1  0
 20 48  1  0
 21 49  1  0
 23 50  1  0
 24 51  1  0
 24 52  1  0
 26 53  1  0
 27 54  1  0
 29 55  1  0
 32 56  1  0
 32 57  1  0
 33 58  1  0
 33 59  1  0
 33 60  1  0
 35 61  1  0
 36 62  1  0
 38 63  1  0
M  END
>  <Energy>  (1119) 
95.325893396333569

>  <compound_id>  (1119) 
548

>  <target_id>  (1119) 
1

>  <reference_id>  (1119) 
161

>  <inspiration_ids>  (1119) 
[161, 16]

>  <energy_score>  (1119) 
-12.000639432006892

>  <distance_score>  (1119) 
3.295198706056634

>  <path>  (1119) 
/opt/xchem-fragalysis-2/maxwin/BulkDock/SCRATCH/505735/C548-P161/C548-P161.minimised.mol

>  <scratch_subdir>  (1119) 
/opt/xchem-fragalysis-2/maxwin/BulkDock/SCRATCH/505735/C548-P161

>  <fragmenstein_runtime>  (1119) 
30.949098825454712

>  <fragmenstein_outcome>  (1119) 
too moved

>  <fragmenstein_mode>  (1119) 
expansion

>  <fragmenstein_error>  (1119) 


$$$$
C548-P16
     RDKit          3D

 63 67  0  0  0  0  0  0  0  0999 V2000
  -16.8017  -20.7161   31.8208 C   0  0  0  0  0  0  0  0  0  0  0  0
  -16.7131  -21.6977   32.7257 C   0  0  0  0  0  0  0  0  0  0  0  0
  -15.6609  -21.9522   33.7687 C   0  0  0  0  0  0  0  0  0  0  0  0
  -14.3730  -21.3221   33.5458 N   0  0  0  0  0  0  0  0  0  0  0  0
  -13.3857  -21.7960   32.7275 C   0  0  0  0  0  0  0  0  0  0  0  0
  -13.6563  -22.8191   31.3797 S   0  0  0  0  0  0  0  0  0  0  0  0
  -12.2990  -23.8706   31.5303 C   0  0  0  0  0  0  0  0  0  0  0  0
  -11.8863  -24.3632   32.7179 C   0  0  0  0  0  0  0  0  0  0  0  0
  -10.7500  -25.2597   32.7560 C   0  0  0  0  0  0  0  0  0  0  0  0
  -10.1223  -25.6446   31.6318 C   0  0  0  0  0  0  0  0  0  0  0  0
  -10.5653  -25.1731   30.3748 C   0  0  0  0  0  0  0  0  0  0  0  0
  -10.1649  -25.4031   29.1432 N   0  0  0  0  0  0  0  0  0  0  0  0
  -10.9577  -24.6644   28.2983 N   0  0  0  0  0  0  0  0  0  0  0  0
  -11.8213  -24.0057   29.0381 C   0  0  0  0  0  0  0  0  0  0  0  0
  -11.6357  -24.2927   30.3678 N   0  0  0  0  0  0  0  0  0  0  0  0
  -12.2508  -21.2242   33.0347 N   0  0  0  0  0  0  0  0  0  0  0  0
  -12.5027  -20.3080   34.0282 N   0  0  0  0  0  0  0  0  0  0  0  0
  -13.8020  -20.2731   34.2524 C   0  0  0  0  0  0  0  0  0  0  0  0
  -14.4886  -19.2664   35.0517 C   0  0  0  0  0  0  0  0  0  0  0  0
  -15.7148  -18.7530   34.6747 C   0  0  0  0  0  0  0  0  0  0  0  0
  -16.3997  -17.8979   35.5202 C   0  0  0  0  0  0  0  0  0  0  0  0
  -15.9483  -17.7295   36.8150 C   0  0  0  0  0  0  0  0  0  0  0  0
  -16.8336  -17.2924   37.8173 N   0  0  0  0  0  0  0  0  0  0  0  0
  -18.1986  -17.8626   37.7227 C   0  0  0  0  0  0  0  0  0  0  0  0
  -18.2265  -19.3600   37.4439 C   0  0  0  0  0  0  0  0  0  0  0  0
  -17.7173  -20.2432   38.3866 C   0  0  0  0  0  0  0  0  0  0  0  0
  -17.6766  -21.6149   38.1285 C   0  0  0  0  0  0  0  0  0  0  0  0
  -18.1093  -22.1427   36.9192 C   0  0  0  0  0  0  0  0  0  0  0  0
  -18.1032  -23.5354   36.8114 N   0  0  0  0  0  0  0  0  0  0  0  0
  -18.7189  -24.4659   35.7311 C   0  0  0  0  0  0  0  0  0  0  0  0
  -19.2583  -24.2069   34.7265 O   0  0  0  0  0  0  0  0  0  0  0  0
  -18.5833  -25.8964   36.2402 C   0  0  0  0  0  0  0  0  0  0  0  0
  -17.2027  -26.4603   35.9890 C   0  0  0  0  0  0  0  0  0  0  0  0
  -18.5468  -21.2493   35.9460 C   0  0  0  0  0  0  0  0  0  0  0  0
  -18.8715  -21.5846   34.6726 O   0  0  0  0  0  0  0  0  0  0  0  0
  -18.6550  -19.8868   36.2198 C   0  0  0  0  0  0  0  0  0  0  0  0
  -14.6958  -18.0749   37.1524 N   0  0  0  0  0  0  0  0  0  0  0  0
  -13.9677  -18.7692   36.2374 C   0  0  0  0  0  0  0  0  0  0  0  0
  -16.0504  -19.9485   31.7189 H   0  0  0  0  0  0  0  0  0  0  0  0
  -17.6761  -20.6575   31.1806 H   0  0  0  0  0  0  0  0  0  0  0  0
  -17.5252  -22.4247   32.7559 H   0  0  0  0  0  0  0  0  0  0  0  0
  -15.4726  -23.0302   33.8411 H   0  0  0  0  0  0  0  0  0  0  0  0
  -16.0232  -21.6452   34.7513 H   0  0  0  0  0  0  0  0  0  0  0  0
  -12.3631  -24.1291   33.6664 H   0  0  0  0  0  0  0  0  0  0  0  0
  -10.4169  -25.6250   33.7214 H   0  0  0  0  0  0  0  0  0  0  0  0
   -9.2761  -26.3200   31.6625 H   0  0  0  0  0  0  0  0  0  0  0  0
  -12.5751  -23.3277   28.6695 H   0  0  0  0  0  0  0  0  0  0  0  0
  -16.1886  -19.0229   33.7443 H   0  0  0  0  0  0  0  0  0  0  0  0
  -17.3657  -17.5117   35.2215 H   0  0  0  0  0  0  0  0  0  0  0  0
  -16.9082  -16.2840   37.6804 H   0  0  0  0  0  0  0  0  0  0  0  0
  -18.7063  -17.6809   38.6780 H   0  0  0  0  0  0  0  0  0  0  0  0
  -18.7864  -17.3213   36.9702 H   0  0  0  0  0  0  0  0  0  0  0  0
  -17.3407  -19.8662   39.3362 H   0  0  0  0  0  0  0  0  0  0  0  0
  -17.3507  -22.2656   38.9339 H   0  0  0  0  0  0  0  0  0  0  0  0
  -17.7842  -24.0964   37.6039 H   0  0  0  0  0  0  0  0  0  0  0  0
  -19.3326  -26.5081   35.7240 H   0  0  0  0  0  0  0  0  0  0  0  0
  -18.8321  -25.9374   37.3064 H   0  0  0  0  0  0  0  0  0  0  0  0
  -16.4334  -25.8841   36.5123 H   0  0  0  0  0  0  0  0  0  0  0  0
  -16.9632  -26.4386   34.9213 H   0  0  0  0  0  0  0  0  0  0  0  0
  -17.1434  -27.4976   36.3324 H   0  0  0  0  0  0  0  0  0  0  0  0
  -19.0750  -22.5426   34.6449 H   0  0  0  0  0  0  0  0  0  0  0  0
  -19.0396  -19.2288   35.4441 H   0  0  0  0  0  0  0  0  0  0  0  0
  -12.9508  -18.9961   36.5439 H   0  0  0  0  0  0  0  0  0  0  0  0
  1  2  2  0
  2  3  1  0
  3  4  1  0
  4  5  1  0
  5  6  1  0
  6  7  1  0
  7  8  2  0
  8  9  1  0
  9 10  2  0
 10 11  1  0
 11 12  2  0
 12 13  1  0
 13 14  2  0
 14 15  1  0
  5 16  2  0
 16 17  1  0
 17 18  2  0
 18 19  1  0
 19 20  2  0
 20 21  1  0
 21 22  2  0
 22 23  1  0
 23 24  1  0
 24 25  1  0
 25 26  2  0
 26 27  1  0
 27 28  2  0
 28 29  1  0
 29 30  1  0
 30 31  2  0
 30 32  1  0
 32 33  1  0
 28 34  1  0
 34 35  1  0
 34 36  2  0
 22 37  1  0
 37 38  2  0
 18  4  1  0
 38 19  1  0
 15  7  1  0
 36 25  1  0
 15 11  1  0
  1 39  1  0
  1 40  1  0
  2 41  1  0
  3 42  1  0
  3 43  1  0
  8 44  1  0
  9 45  1  0
 10 46  1  0
 14 47  1  0
 20 48  1  0
 21 49  1  0
 23 50  1  0
 24 51  1  0
 24 52  1  0
 26 53  1  0
 27 54  1  0
 29 55  1  0
 32 56  1  0
 32 57  1  0
 33 58  1  0
 33 59  1  0
 33 60  1  0
 35 61  1  0
 36 62  1  0
 38 63  1  0
M  END
>  <Energy>  (1120) 
58.99316583925355

>  <compound_id>  (1120) 
548

>  <target_id>  (1120) 
1

>  <reference_id>  (1120) 
16

>  <inspiration_ids>  (1120) 
[161, 16]

>  <energy_score>  (1120) 
-48.33336698908545

>  <distance_score>  (1120) 
3.008672916867654

>  <path>  (1120) 
/opt/xchem-fragalysis-2/maxwin/BulkDock/SCRATCH/505735/C548-P16/C548-P16.minimised.mol

>  <scratch_subdir>  (1120) 
/opt/xchem-fragalysis-2/maxwin/BulkDock/SCRATCH/505735/C548-P16

>  <fragmenstein_runtime>  (1120) 
63.46583795547485

>  <fragmenstein_outcome>  (1120) 
too moved

>  <fragmenstein_mode>  (1120) 
expansion

>  <fragmenstein_error>  (1120) 


$$$$
C4531-P161
     RDKit          3D

 62 66  0  0  0  0  0  0  0  0999 V2000
  -18.5274  -26.4410   30.0121 C   0  0  0  0  0  0  0  0  0  0  0  0
  -18.7458  -25.5402   30.9797 C   0  0  0  0  0  0  0  0  0  0  0  0
  -18.9172  -25.8714   32.4350 C   0  0  0  0  0  0  0  0  0  0  0  0
  -18.0127  -25.1527   33.3387 N   0  0  0  0  0  0  0  0  0  0  0  0
  -16.6109  -25.5035   33.0468 C   0  0  0  0  0  0  0  0  0  0  0  0
  -15.7265  -24.5005   31.8288 S   0  0  0  0  0  0  0  0  0  0  0  0
  -15.2641  -23.0667   32.6603 C   0  0  0  0  0  0  0  0  0  0  0  0
  -14.1356  -23.0586   33.3831 C   0  0  0  0  0  0  0  0  0  0  0  0
  -13.7244  -21.8777   34.1189 C   0  0  0  0  0  0  0  0  0  0  0  0
  -14.4324  -20.7406   34.0502 C   0  0  0  0  0  0  0  0  0  0  0  0
  -15.5758  -20.7005   33.2133 C   0  0  0  0  0  0  0  0  0  0  0  0
  -16.3751  -19.7178   32.8720 N   0  0  0  0  0  0  0  0  0  0  0  0
  -17.3326  -20.2266   32.0301 N   0  0  0  0  0  0  0  0  0  0  0  0
  -17.1124  -21.5148   31.9065 C   0  0  0  0  0  0  0  0  0  0  0  0
  -15.9692  -21.8694   32.5682 N   0  0  0  0  0  0  0  0  0  0  0  0
  -15.9478  -25.5192   34.3327 N   0  0  0  0  0  0  0  0  0  0  0  0
  -16.9168  -26.0593   35.2409 N   0  0  0  0  0  0  0  0  0  0  0  0
  -18.2257  -25.4501   34.7959 C   0  0  0  0  0  0  0  0  0  0  0  0
  -18.3896  -24.2051   35.6771 C   0  0  0  0  0  0  0  0  0  0  0  0
  -19.0826  -24.2535   36.8414 C   0  0  0  0  0  0  0  0  0  0  0  0
  -19.3375  -23.0100   37.6510 C   0  0  0  0  0  0  0  0  0  0  0  0
  -19.0588  -21.7333   36.8545 C   0  0  0  0  0  0  0  0  0  0  0  0
  -17.7612  -21.8240   36.1994 N   0  0  0  0  0  0  0  0  0  0  0  0
  -17.7544  -22.9223   35.2247 C   0  0  0  0  0  0  0  0  0  0  0  0
  -19.6725  -25.3888   37.3875 O   0  0  0  0  0  0  0  0  0  0  0  0
  -19.2204  -26.6420   36.7665 N   0  0  0  0  0  0  0  0  0  0  0  0
  -19.3575  -26.4493   35.2833 C   0  0  0  0  0  0  0  0  0  0  0  0
  -20.8675  -26.0785   35.0157 C   0  0  0  0  0  0  0  0  0  0  0  0
  -21.1771  -25.1051   34.3953 O   0  0  0  0  0  0  0  0  0  0  0  0
  -21.6750  -27.1265   35.5816 N   0  0  0  0  0  0  0  0  0  0  0  0
  -23.1081  -27.2799   35.6591 C   0  0  0  0  0  0  0  0  0  0  0  0
  -23.4946  -28.7471   35.7536 C   0  0  0  0  0  0  0  0  0  0  0  0
  -22.7051  -29.6725   35.9053 O   0  0  0  0  0  0  0  0  0  0  0  0
  -24.8493  -28.8772   35.6696 O   0  0  0  0  0  0  0  0  0  0  0  0
  -25.3108  -30.2255   35.7625 C   0  0  0  0  0  0  0  0  0  0  0  0
  -18.4542  -27.5030   30.2227 H   0  0  0  0  0  0  0  0  0  0  0  0
  -18.3912  -26.1282   28.9816 H   0  0  0  0  0  0  0  0  0  0  0  0
  -18.8056  -24.4858   30.7241 H   0  0  0  0  0  0  0  0  0  0  0  0
  -19.9467  -25.5841   32.6314 H   0  0  0  0  0  0  0  0  0  0  0  0
  -18.8466  -26.9566   32.5829 H   0  0  0  0  0  0  0  0  0  0  0  0
  -16.5650  -26.5320   32.6604 H   0  0  0  0  0  0  0  0  0  0  0  0
  -13.5343  -23.9511   33.4254 H   0  0  0  0  0  0  0  0  0  0  0  0
  -12.8248  -21.9340   34.7248 H   0  0  0  0  0  0  0  0  0  0  0  0
  -14.1298  -19.8514   34.5923 H   0  0  0  0  0  0  0  0  0  0  0  0
  -17.7272  -22.2162   31.3665 H   0  0  0  0  0  0  0  0  0  0  0  0
  -15.0939  -26.0743   34.2178 H   0  0  0  0  0  0  0  0  0  0  0  0
  -16.9777  -27.0759   35.1455 H   0  0  0  0  0  0  0  0  0  0  0  0
  -18.7049  -23.0398   38.5469 H   0  0  0  0  0  0  0  0  0  0  0  0
  -20.3807  -22.9932   37.9883 H   0  0  0  0  0  0  0  0  0  0  0  0
  -19.0624  -20.8765   37.5372 H   0  0  0  0  0  0  0  0  0  0  0  0
  -19.8513  -21.5556   36.1161 H   0  0  0  0  0  0  0  0  0  0  0  0
  -17.5692  -20.9556   35.6975 H   0  0  0  0  0  0  0  0  0  0  0  0
  -16.7042  -23.0983   35.0012 H   0  0  0  0  0  0  0  0  0  0  0  0
  -18.2612  -22.5836   34.3151 H   0  0  0  0  0  0  0  0  0  0  0  0
  -18.2222  -26.6021   37.0035 H   0  0  0  0  0  0  0  0  0  0  0  0
  -19.1878  -27.4280   34.8140 H   0  0  0  0  0  0  0  0  0  0  0  0
  -21.0761  -27.7548   36.1183 H   0  0  0  0  0  0  0  0  0  0  0  0
  -23.4500  -26.7556   36.5554 H   0  0  0  0  0  0  0  0  0  0  0  0
  -23.5493  -26.8270   34.7670 H   0  0  0  0  0  0  0  0  0  0  0  0
  -25.0408  -30.6569   36.7315 H   0  0  0  0  0  0  0  0  0  0  0  0
  -26.4011  -30.2170   35.6791 H   0  0  0  0  0  0  0  0  0  0  0  0
  -24.9054  -30.8270   34.9429 H   0  0  0  0  0  0  0  0  0  0  0  0
  1  2  2  0
  2  3  1  0
  3  4  1  0
  4  5  1  0
  5  6  1  0
  6  7  1  0
  7  8  2  0
  8  9  1  0
  9 10  2  0
 10 11  1  0
 11 12  2  0
 12 13  1  0
 13 14  2  0
 14 15  1  0
  5 16  1  0
 16 17  1  0
 17 18  1  0
 18 19  1  0
 19 20  2  0
 20 21  1  0
 21 22  1  0
 22 23  1  0
 23 24  1  0
 20 25  1  0
 25 26  1  0
 26 27  1  0
 27 28  1  0
 28 29  2  0
 28 30  1  0
 30 31  1  0
 31 32  1  0
 32 33  2  0
 32 34  1  0
 34 35  1  0
 18  4  1  0
 24 19  1  0
 15  7  1  0
 27 18  1  0
 15 11  1  0
  1 36  1  0
  1 37  1  0
  2 38  1  0
  3 39  1  0
  3 40  1  0
  5 41  1  0
  8 42  1  0
  9 43  1  0
 10 44  1  0
 14 45  1  0
 16 46  1  0
 17 47  1  0
 21 48  1  0
 21 49  1  0
 22 50  1  0
 22 51  1  0
 23 52  1  0
 24 53  1  0
 24 54  1  0
 26 55  1  0
 27 56  1  0
 30 57  1  0
 31 58  1  0
 31 59  1  0
 35 60  1  0
 35 61  1  0
 35 62  1  0
M  END
>  <Energy>  (1121) 
109.52572218988263

>  <compound_id>  (1121) 
4531

>  <target_id>  (1121) 
1

>  <reference_id>  (1121) 
161

>  <inspiration_ids>  (1121) 
[161, 32]

>  <energy_score>  (1121) 
-168.65874647257408

>  <distance_score>  (1121) 
3.5495950201478683

>  <path>  (1121) 
/opt/xchem-fragalysis-2/maxwin/BulkDock/SCRATCH/505735/C4531-P161/C4531-P161.minimised.mol

>  <scratch_subdir>  (1121) 
/opt/xchem-fragalysis-2/maxwin/BulkDock/SCRATCH/505735/C4531-P161

>  <fragmenstein_runtime>  (1121) 
26.86999201774597

>  <fragmenstein_outcome>  (1121) 
too moved

>  <fragmenstein_mode>  (1121) 
expansion

>  <fragmenstein_error>  (1121) 


$$$$
C4531-P32
     RDKit          3D

 62 66  0  0  0  0  0  0  0  0999 V2000
  -20.8687  -21.8569   32.7213 C   0  0  0  0  0  0  0  0  0  0  0  0
  -19.5408  -21.9105   32.5528 C   0  0  0  0  0  0  0  0  0  0  0  0
  -18.5616  -20.9073   33.0964 C   0  0  0  0  0  0  0  0  0  0  0  0
  -17.4488  -21.5417   33.7757 N   0  0  0  0  0  0  0  0  0  0  0  0
  -16.3099  -20.6535   34.0326 C   0  0  0  0  0  0  0  0  0  0  0  0
  -15.4311  -19.9724   32.5141 S   0  0  0  0  0  0  0  0  0  0  0  0
  -13.8835  -19.5056   33.1166 C   0  0  0  0  0  0  0  0  0  0  0  0
  -13.9071  -18.5128   34.0335 C   0  0  0  0  0  0  0  0  0  0  0  0
  -12.7068  -17.7728   34.3240 C   0  0  0  0  0  0  0  0  0  0  0  0
  -11.5615  -18.0949   33.7135 C   0  0  0  0  0  0  0  0  0  0  0  0
  -11.4667  -19.2068   32.8340 C   0  0  0  0  0  0  0  0  0  0  0  0
  -10.4850  -19.6063   32.0544 N   0  0  0  0  0  0  0  0  0  0  0  0
  -10.9821  -20.5181   31.1835 N   0  0  0  0  0  0  0  0  0  0  0  0
  -12.2637  -20.6221   31.4294 C   0  0  0  0  0  0  0  0  0  0  0  0
  -12.6423  -19.8731   32.5207 N   0  0  0  0  0  0  0  0  0  0  0  0
  -15.4928  -21.4715   34.9188 N   0  0  0  0  0  0  0  0  0  0  0  0
  -16.3930  -22.2087   35.7767 N   0  0  0  0  0  0  0  0  0  0  0  0
  -17.7020  -22.2715   35.0552 C   0  0  0  0  0  0  0  0  0  0  0  0
  -17.9776  -23.7609   34.8148 C   0  0  0  0  0  0  0  0  0  0  0  0
  -19.0026  -24.4092   35.4184 C   0  0  0  0  0  0  0  0  0  0  0  0
  -19.2166  -25.8808   35.2264 C   0  0  0  0  0  0  0  0  0  0  0  0
  -17.9825  -26.5473   34.6126 C   0  0  0  0  0  0  0  0  0  0  0  0
  -17.4761  -25.7962   33.4711 N   0  0  0  0  0  0  0  0  0  0  0  0
  -16.9990  -24.4954   33.9499 C   0  0  0  0  0  0  0  0  0  0  0  0
  -19.9123  -23.8126   36.2713 O   0  0  0  0  0  0  0  0  0  0  0  0
  -19.2646  -22.7355   37.0180 N   0  0  0  0  0  0  0  0  0  0  0  0
  -18.8878  -21.7288   35.9668 C   0  0  0  0  0  0  0  0  0  0  0  0
  -18.5852  -20.3553   36.6245 C   0  0  0  0  0  0  0  0  0  0  0  0
  -18.7383  -19.3494   36.0523 O   0  0  0  0  0  0  0  0  0  0  0  0
  -18.1184  -20.6223   38.0751 N   0  0  0  0  0  0  0  0  0  0  0  0
  -17.6523  -19.7109   39.0923 C   0  0  0  0  0  0  0  0  0  0  0  0
  -18.0656  -20.1564   40.4859 C   0  0  0  0  0  0  0  0  0  0  0  0
  -18.5590  -21.2427   40.7668 O   0  0  0  0  0  0  0  0  0  0  0  0
  -17.7914  -19.1689   41.3878 O   0  0  0  0  0  0  0  0  0  0  0  0
  -18.1728  -19.4823   42.7276 C   0  0  0  0  0  0  0  0  0  0  0  0
  -21.3420  -21.0583   33.2839 H   0  0  0  0  0  0  0  0  0  0  0  0
  -21.5128  -22.6179   32.2915 H   0  0  0  0  0  0  0  0  0  0  0  0
  -19.1157  -22.7238   31.9695 H   0  0  0  0  0  0  0  0  0  0  0  0
  -18.2006  -20.3673   32.2131 H   0  0  0  0  0  0  0  0  0  0  0  0
  -19.0602  -20.1539   33.7127 H   0  0  0  0  0  0  0  0  0  0  0  0
  -16.6449  -19.7685   34.5856 H   0  0  0  0  0  0  0  0  0  0  0  0
  -14.8249  -18.1218   34.4641 H   0  0  0  0  0  0  0  0  0  0  0  0
  -12.7726  -16.8774   34.9354 H   0  0  0  0  0  0  0  0  0  0  0  0
  -10.7478  -17.3893   33.7672 H   0  0  0  0  0  0  0  0  0  0  0  0
  -12.9244  -21.1612   30.7820 H   0  0  0  0  0  0  0  0  0  0  0  0
  -14.7552  -20.9430   35.3741 H   0  0  0  0  0  0  0  0  0  0  0  0
  -16.5090  -21.7893   36.7000 H   0  0  0  0  0  0  0  0  0  0  0  0
  -20.0876  -26.0292   34.5765 H   0  0  0  0  0  0  0  0  0  0  0  0
  -19.4378  -26.3586   36.1878 H   0  0  0  0  0  0  0  0  0  0  0  0
  -17.1958  -26.6776   35.3675 H   0  0  0  0  0  0  0  0  0  0  0  0
  -18.2528  -27.5564   34.2809 H   0  0  0  0  0  0  0  0  0  0  0  0
  -18.2305  -25.6248   32.8100 H   0  0  0  0  0  0  0  0  0  0  0  0
  -16.7135  -23.9131   33.0708 H   0  0  0  0  0  0  0  0  0  0  0  0
  -16.1230  -24.6808   34.5613 H   0  0  0  0  0  0  0  0  0  0  0  0
  -20.0777  -22.3713   37.5193 H   0  0  0  0  0  0  0  0  0  0  0  0
  -19.7956  -21.5628   35.3745 H   0  0  0  0  0  0  0  0  0  0  0  0
  -18.1767  -21.6258   38.2740 H   0  0  0  0  0  0  0  0  0  0  0  0
  -16.5662  -19.6551   39.0247 H   0  0  0  0  0  0  0  0  0  0  0  0
  -18.0816  -18.7283   38.8764 H   0  0  0  0  0  0  0  0  0  0  0  0
  -19.2511  -19.6596   42.7886 H   0  0  0  0  0  0  0  0  0  0  0  0
  -17.6150  -20.3511   43.0908 H   0  0  0  0  0  0  0  0  0  0  0  0
  -17.9269  -18.6244   43.3594 H   0  0  0  0  0  0  0  0  0  0  0  0
  1  2  2  0
  2  3  1  0
  3  4  1  0
  4  5  1  0
  5  6  1  0
  6  7  1  0
  7  8  2  0
  8  9  1  0
  9 10  2  0
 10 11  1  0
 11 12  2  0
 12 13  1  0
 13 14  2  0
 14 15  1  0
  5 16  1  0
 16 17  1  0
 17 18  1  0
 18 19  1  0
 19 20  2  0
 20 21  1  0
 21 22  1  0
 22 23  1  0
 23 24  1  0
 20 25  1  0
 25 26  1  0
 26 27  1  0
 27 28  1  0
 28 29  2  0
 28 30  1  0
 30 31  1  0
 31 32  1  0
 32 33  2  0
 32 34  1  0
 34 35  1  0
 18  4  1  0
 24 19  1  0
 15  7  1  0
 27 18  1  0
 15 11  1  0
  1 36  1  0
  1 37  1  0
  2 38  1  0
  3 39  1  0
  3 40  1  0
  5 41  1  0
  8 42  1  0
  9 43  1  0
 10 44  1  0
 14 45  1  0
 16 46  1  0
 17 47  1  0
 21 48  1  0
 21 49  1  0
 22 50  1  0
 22 51  1  0
 23 52  1  0
 24 53  1  0
 24 54  1  0
 26 55  1  0
 27 56  1  0
 30 57  1  0
 31 58  1  0
 31 59  1  0
 35 60  1  0
 35 61  1  0
 35 62  1  0
M  END
>  <Energy>  (1122) 
125.07591946297546

>  <compound_id>  (1122) 
4531

>  <target_id>  (1122) 
1

>  <reference_id>  (1122) 
32

>  <inspiration_ids>  (1122) 
[161, 32]

>  <energy_score>  (1122) 
-44.690892114074586

>  <distance_score>  (1122) 
3.4835661467531014

>  <path>  (1122) 
/opt/xchem-fragalysis-2/maxwin/BulkDock/SCRATCH/505735/C4531-P32/C4531-P32.minimised.mol

>  <scratch_subdir>  (1122) 
/opt/xchem-fragalysis-2/maxwin/BulkDock/SCRATCH/505735/C4531-P32

>  <fragmenstein_runtime>  (1122) 
9.243808507919312

>  <fragmenstein_outcome>  (1122) 
too moved

>  <fragmenstein_mode>  (1122) 
expansion

>  <fragmenstein_error>  (1122) 


$$$$
C3682-P161
     RDKit          3D

 63 68  0  0  0  0  0  0  0  0999 V2000
  -20.4110  -19.7228   34.4357 C   0  0  0  0  0  0  0  0  0  0  0  0
  -19.0898  -19.7316   34.1933 C   0  0  0  0  0  0  0  0  0  0  0  0
  -17.9368  -19.8827   35.2824 C   0  0  0  0  0  0  0  0  0  0  0  0
  -16.5316  -21.2285   35.7548 N   0  0  0  0  0  0  0  0  0  0  0  0
  -15.2451  -21.9384   35.4116 C   0  0  0  0  0  0  0  0  0  0  0  0
  -14.2412  -21.8522   34.3304 C   0  0  0  0  0  0  0  0  0  0  0  0
  -13.0357  -21.1739   34.5283 C   0  0  0  0  0  0  0  0  0  0  0  0
  -12.0618  -21.1913   33.5370 C   0  0  0  0  0  0  0  0  0  0  0  0
  -12.3142  -21.9076   32.3767 C   0  0  0  0  0  0  0  0  0  0  0  0
  -13.4426  -22.6070   32.1490 N   0  0  0  0  0  0  0  0  0  0  0  0
  -14.3469  -22.6062   33.1587 C   0  0  0  0  0  0  0  0  0  0  0  0
  -14.9954  -22.8489   36.3575 N   0  0  0  0  0  0  0  0  0  0  0  0
  -15.9966  -22.8986   37.2549 N   0  0  0  0  0  0  0  0  0  0  0  0
  -16.8004  -22.0078   36.8291 C   0  0  0  0  0  0  0  0  0  0  0  0
  -17.9730  -21.3334   36.8799 C   0  0  0  0  0  0  0  0  0  0  0  0
  -18.9150  -21.6493   38.0063 C   0  0  0  0  0  0  0  0  0  0  0  0
  -20.2886  -21.8022   37.7837 C   0  0  0  0  0  0  0  0  0  0  0  0
  -21.1672  -22.0522   38.8421 C   0  0  0  0  0  0  0  0  0  0  0  0
  -20.6948  -22.1424   40.1558 C   0  0  0  0  0  0  0  0  0  0  0  0
  -21.6471  -22.4186   41.2948 C   0  0  0  0  0  0  0  0  0  0  0  0
  -22.7505  -21.3634   41.4327 C   0  0  0  0  0  0  0  0  0  0  0  0
  -23.8774  -21.6522   41.1486 O   0  0  0  0  0  0  0  0  0  0  0  0
  -22.1902  -20.1297   41.9092 N   0  0  0  0  0  0  0  0  0  0  0  0
  -22.8159  -18.8943   42.2808 C   0  0  0  0  0  0  0  0  0  0  0  0
  -19.3251  -21.9901   40.3897 C   0  0  0  0  0  0  0  0  0  0  0  0
  -18.4501  -21.7374   39.3294 C   0  0  0  0  0  0  0  0  0  0  0  0
  -16.7886  -19.7110   37.0776 C   0  0  0  0  0  0  0  0  0  0  0  0
  -15.7604  -19.2785   35.4320 C   0  0  0  0  0  0  0  0  0  0  0  0
  -16.3290  -20.1867   33.8340 C   0  0  0  0  0  0  0  0  0  0  0  0
  -16.0763  -20.0083   32.5531 N   0  0  0  0  0  0  0  0  0  0  0  0
  -16.7885  -20.9807   31.7858 N   0  0  0  0  0  0  0  0  0  0  0  0
  -17.5106  -21.8095   32.5328 C   0  0  0  0  0  0  0  0  0  0  0  0
  -18.3950  -22.8997   32.3032 C   0  0  0  0  0  0  0  0  0  0  0  0
  -19.1319  -23.4673   33.2931 C   0  0  0  0  0  0  0  0  0  0  0  0
  -19.1546  -23.0810   34.7134 C   0  0  0  0  0  0  0  0  0  0  0  0
  -18.3605  -22.0749   35.1177 C   0  0  0  0  0  0  0  0  0  0  0  0
  -17.3963  -21.4630   33.8419 N   0  0  0  0  0  0  0  0  0  0  0  0
  -20.8297  -19.8680   35.4234 H   0  0  0  0  0  0  0  0  0  0  0  0
  -21.1058  -19.5240   33.6239 H   0  0  0  0  0  0  0  0  0  0  0  0
  -18.7957  -19.4495   33.1793 H   0  0  0  0  0  0  0  0  0  0  0  0
  -17.5406  -18.8651   35.2393 H   0  0  0  0  0  0  0  0  0  0  0  0
  -18.5933  -19.7563   36.1665 H   0  0  0  0  0  0  0  0  0  0  0  0
  -12.8216  -20.6673   35.4640 H   0  0  0  0  0  0  0  0  0  0  0  0
  -11.1154  -20.6821   33.6760 H   0  0  0  0  0  0  0  0  0  0  0  0
  -11.5843  -21.9452   31.5805 H   0  0  0  0  0  0  0  0  0  0  0  0
  -15.1883  -23.2706   32.9883 H   0  0  0  0  0  0  0  0  0  0  0  0
  -20.7060  -21.7338   36.7836 H   0  0  0  0  0  0  0  0  0  0  0  0
  -22.2294  -22.1751   38.6323 H   0  0  0  0  0  0  0  0  0  0  0  0
  -21.1130  -22.4858   42.2509 H   0  0  0  0  0  0  0  0  0  0  0  0
  -22.1149  -23.3987   41.1383 H   0  0  0  0  0  0  0  0  0  0  0  0
  -21.1820  -20.2243   41.9651 H   0  0  0  0  0  0  0  0  0  0  0  0
  -23.8987  -18.9765   42.1628 H   0  0  0  0  0  0  0  0  0  0  0  0
  -22.5663  -18.6784   43.3220 H   0  0  0  0  0  0  0  0  0  0  0  0
  -22.4269  -18.1015   41.6381 H   0  0  0  0  0  0  0  0  0  0  0  0
  -18.9190  -22.0746   41.3955 H   0  0  0  0  0  0  0  0  0  0  0  0
  -17.3877  -21.6297   39.5497 H   0  0  0  0  0  0  0  0  0  0  0  0
  -16.0393  -19.9037   37.8641 H   0  0  0  0  0  0  0  0  0  0  0  0
  -17.3775  -18.8299   37.3823 H   0  0  0  0  0  0  0  0  0  0  0  0
  -15.8268  -18.1971   35.2268 H   0  0  0  0  0  0  0  0  0  0  0  0
  -14.7095  -19.5009   35.6243 H   0  0  0  0  0  0  0  0  0  0  0  0
  -18.4604  -23.2819   31.2913 H   0  0  0  0  0  0  0  0  0  0  0  0
  -19.7756  -24.3086   33.0400 H   0  0  0  0  0  0  0  0  0  0  0  0
  -19.7746  -23.6461   35.4002 H   0  0  0  0  0  0  0  0  0  0  0  0
  1  2  2  0
  2  3  1  0
  3  4  1  0
  4  5  1  0
  5  6  1  0
  6  7  2  0
  7  8  1  0
  8  9  2  0
  9 10  1  0
 10 11  2  0
  5 12  2  0
 12 13  1  0
 13 14  2  0
 14 15  1  0
 15 16  1  0
 16 17  2  0
 17 18  1  0
 18 19  2  0
 19 20  1  0
 20 21  1  0
 21 22  2  0
 21 23  1  0
 23 24  1  0
 19 25  1  0
 25 26  2  0
 15 27  1  0
 27 28  1  0
 28 29  1  0
 29 30  2  0
 30 31  1  0
 31 32  2  0
 32 33  1  0
 33 34  2  0
 34 35  1  0
 35 36  2  0
 36 37  1  0
 14  4  1  0
 36 15  1  0
 11  6  1  0
 26 16  1  0
 37 29  1  0
 37 32  1  0
  1 38  1  0
  1 39  1  0
  2 40  1  0
  3 41  1  0
  3 42  1  0
  7 43  1  0
  8 44  1  0
  9 45  1  0
 11 46  1  0
 17 47  1  0
 18 48  1  0
 20 49  1  0
 20 50  1  0
 23 51  1  0
 24 52  1  0
 24 53  1  0
 24 54  1  0
 25 55  1  0
 26 56  1  0
 27 57  1  0
 27 58  1  0
 28 59  1  0
 28 60  1  0
 33 61  1  0
 34 62  1  0
 35 63  1  0
M  END
>  <Energy>  (1123) 
948.94256566294769

>  <compound_id>  (1123) 
3682

>  <target_id>  (1123) 
1

>  <reference_id>  (1123) 
161

>  <inspiration_ids>  (1123) 
[161, 49]

>  <energy_score>  (1123) 
778.677151997155

>  <distance_score>  (1123) 
2.9678351201405273

>  <path>  (1123) 
/opt/xchem-fragalysis-2/maxwin/BulkDock/SCRATCH/505735/C3682-P161/C3682-P161.minimised.mol

>  <scratch_subdir>  (1123) 
/opt/xchem-fragalysis-2/maxwin/BulkDock/SCRATCH/505735/C3682-P161

>  <fragmenstein_runtime>  (1123) 
31.07813596725464

>  <fragmenstein_outcome>  (1123) 
too moved

>  <fragmenstein_mode>  (1123) 
expansion

>  <fragmenstein_error>  (1123) 


$$$$
C3682-P49
     RDKit          3D

 63 68  0  0  0  0  0  0  0  0999 V2000
  -17.9432  -22.1511   32.9299 C   0  0  0  0  0  0  0  0  0  0  0  0
  -17.4442  -21.7848   34.1824 C   0  0  0  0  0  0  0  0  0  0  0  0
  -16.5100  -20.1838   35.3085 C   0  0  0  0  0  0  0  0  0  0  0  0
  -17.0622  -18.6513   35.7604 N   0  0  0  0  0  0  0  0  0  0  0  0
  -16.3739  -17.4589   35.9180 C   0  0  0  0  0  0  0  0  0  0  0  0
  -14.9733  -17.1075   35.6615 C   0  0  0  0  0  0  0  0  0  0  0  0
  -14.1126  -17.6964   34.7357 C   0  0  0  0  0  0  0  0  0  0  0  0
  -12.7601  -17.3476   34.7088 C   0  0  0  0  0  0  0  0  0  0  0  0
  -12.3235  -16.3335   35.5307 C   0  0  0  0  0  0  0  0  0  0  0  0
  -13.1126  -15.7201   36.4239 N   0  0  0  0  0  0  0  0  0  0  0  0
  -14.4082  -16.1115   36.4587 C   0  0  0  0  0  0  0  0  0  0  0  0
  -17.2161  -16.6023   36.4861 N   0  0  0  0  0  0  0  0  0  0  0  0
  -18.4531  -17.1631   36.6190 N   0  0  0  0  0  0  0  0  0  0  0  0
  -18.3675  -18.3860   36.1665 C   0  0  0  0  0  0  0  0  0  0  0  0
  -19.4498  -19.3450   35.7702 C   0  0  0  0  0  0  0  0  0  0  0  0
  -20.4200  -19.7846   36.8607 C   0  0  0  0  0  0  0  0  0  0  0  0
  -21.4092  -20.7440   36.5701 C   0  0  0  0  0  0  0  0  0  0  0  0
  -22.3064  -21.1841   37.5480 C   0  0  0  0  0  0  0  0  0  0  0  0
  -22.2455  -20.6737   38.8484 C   0  0  0  0  0  0  0  0  0  0  0  0
  -23.2049  -21.1642   39.9090 C   0  0  0  0  0  0  0  0  0  0  0  0
  -23.9112  -20.0589   40.7054 C   0  0  0  0  0  0  0  0  0  0  0  0
  -23.8669  -20.0915   41.9019 O   0  0  0  0  0  0  0  0  0  0  0  0
  -24.6001  -19.1656   39.8167 N   0  0  0  0  0  0  0  0  0  0  0  0
  -25.3686  -17.9844   40.0803 C   0  0  0  0  0  0  0  0  0  0  0  0
  -21.2558  -19.7342   39.1547 C   0  0  0  0  0  0  0  0  0  0  0  0
  -20.3618  -19.2917   38.1740 C   0  0  0  0  0  0  0  0  0  0  0  0
  -20.1862  -18.7052   34.5239 C   0  0  0  0  0  0  0  0  0  0  0  0
  -19.2992  -18.0021   33.4240 C   0  0  0  0  0  0  0  0  0  0  0  0
  -18.0871  -18.7807   33.0244 C   0  0  0  0  0  0  0  0  0  0  0  0
  -17.0921  -18.5554   32.1691 N   0  0  0  0  0  0  0  0  0  0  0  0
  -15.9685  -19.4534   32.3004 N   0  0  0  0  0  0  0  0  0  0  0  0
  -16.2058  -20.3516   33.2468 C   0  0  0  0  0  0  0  0  0  0  0  0
  -15.3462  -21.6221   34.2674 C   0  0  0  0  0  0  0  0  0  0  0  0
  -16.0279  -22.1768   35.6509 C   0  0  0  0  0  0  0  0  0  0  0  0
  -17.7651  -21.5597   36.2330 C   0  0  0  0  0  0  0  0  0  0  0  0
  -18.5803  -20.4749   35.2992 C   0  0  0  0  0  0  0  0  0  0  0  0
  -17.8100  -19.8634   33.7817 N   0  0  0  0  0  0  0  0  0  0  0  0
  -17.9425  -21.5522   32.0219 H   0  0  0  0  0  0  0  0  0  0  0  0
  -18.3306  -23.1600   32.7861 H   0  0  0  0  0  0  0  0  0  0  0  0
  -17.6548  -22.7786   34.6787 H   0  0  0  0  0  0  0  0  0  0  0  0
  -16.2145  -20.3437   36.3937 H   0  0  0  0  0  0  0  0  0  0  0  0
  -15.5083  -19.7884   35.0267 H   0  0  0  0  0  0  0  0  0  0  0  0
  -14.4519  -18.4327   34.0237 H   0  0  0  0  0  0  0  0  0  0  0  0
  -12.0561  -17.8313   34.0440 H   0  0  0  0  0  0  0  0  0  0  0  0
  -11.3071  -15.9631   35.4893 H   0  0  0  0  0  0  0  0  0  0  0  0
  -15.0074  -15.5803   37.1974 H   0  0  0  0  0  0  0  0  0  0  0  0
  -21.4824  -21.1749   35.5729 H   0  0  0  0  0  0  0  0  0  0  0  0
  -23.0465  -21.9364   37.2830 H   0  0  0  0  0  0  0  0  0  0  0  0
  -22.6444  -21.7957   40.6098 H   0  0  0  0  0  0  0  0  0  0  0  0
  -23.9863  -21.7953   39.4673 H   0  0  0  0  0  0  0  0  0  0  0  0
  -24.4774  -19.4884   38.8631 H   0  0  0  0  0  0  0  0  0  0  0  0
  -24.9054  -17.1454   39.5564 H   0  0  0  0  0  0  0  0  0  0  0  0
  -26.3820  -18.1382   39.7030 H   0  0  0  0  0  0  0  0  0  0  0  0
  -25.3928  -17.7892   41.1548 H   0  0  0  0  0  0  0  0  0  0  0  0
  -21.1680  -19.3310   40.1631 H   0  0  0  0  0  0  0  0  0  0  0  0
  -19.6177  -18.5521   38.4673 H   0  0  0  0  0  0  0  0  0  0  0  0
  -20.9089  -17.9565   34.8782 H   0  0  0  0  0  0  0  0  0  0  0  0
  -20.7813  -19.4815   34.0220 H   0  0  0  0  0  0  0  0  0  0  0  0
  -19.9395  -17.8244   32.5604 H   0  0  0  0  0  0  0  0  0  0  0  0
  -18.9833  -17.0189   33.7890 H   0  0  0  0  0  0  0  0  0  0  0  0
  -14.3784  -21.9385   33.8902 H   0  0  0  0  0  0  0  0  0  0  0  0
  -15.5713  -22.9114   36.3112 H   0  0  0  0  0  0  0  0  0  0  0  0
  -17.9774  -21.7596   37.2832 H   0  0  0  0  0  0  0  0  0  0  0  0
  1  2  2  0
  2  3  1  0
  3  4  1  0
  4  5  1  0
  5  6  1  0
  6  7  2  0
  7  8  1  0
  8  9  2  0
  9 10  1  0
 10 11  2  0
  5 12  2  0
 12 13  1  0
 13 14  2  0
 14 15  1  0
 15 16  1  0
 16 17  2  0
 17 18  1  0
 18 19  2  0
 19 20  1  0
 20 21  1  0
 21 22  2  0
 21 23  1  0
 23 24  1  0
 19 25  1  0
 25 26  2  0
 15 27  1  0
 27 28  1  0
 28 29  1  0
 29 30  2  0
 30 31  1  0
 31 32  2  0
 32 33  1  0
 33 34  2  0
 34 35  1  0
 35 36  2  0
 36 37  1  0
 14  4  1  0
 36 15  1  0
 11  6  1  0
 26 16  1  0
 37 29  1  0
 37 32  1  0
  1 38  1  0
  1 39  1  0
  2 40  1  0
  3 41  1  0
  3 42  1  0
  7 43  1  0
  8 44  1  0
  9 45  1  0
 11 46  1  0
 17 47  1  0
 18 48  1  0
 20 49  1  0
 20 50  1  0
 23 51  1  0
 24 52  1  0
 24 53  1  0
 24 54  1  0
 25 55  1  0
 26 56  1  0
 27 57  1  0
 27 58  1  0
 28 59  1  0
 28 60  1  0
 33 61  1  0
 34 62  1  0
 35 63  1  0
M  END
>  <Energy>  (1124) 
1123.6268134980862

>  <compound_id>  (1124) 
3682

>  <target_id>  (1124) 
1

>  <reference_id>  (1124) 
49

>  <inspiration_ids>  (1124) 
[161, 49]

>  <energy_score>  (1124) 
953.3613998322767

>  <distance_score>  (1124) 
5.198633196323463

>  <path>  (1124) 
/opt/xchem-fragalysis-2/maxwin/BulkDock/SCRATCH/505735/C3682-P49/C3682-P49.minimised.mol

>  <scratch_subdir>  (1124) 
/opt/xchem-fragalysis-2/maxwin/BulkDock/SCRATCH/505735/C3682-P49

>  <fragmenstein_runtime>  (1124) 
21.10461974143982

>  <fragmenstein_outcome>  (1124) 
too moved

>  <fragmenstein_mode>  (1124) 
expansion

>  <fragmenstein_error>  (1124) 


$$$$
C3722-P161
     RDKit          3D

 61 66  0  0  0  0  0  0  0  0999 V2000
  -17.6718  -26.8691   35.3909 C   0  0  0  0  0  0  0  0  0  0  0  0
  -17.4541  -25.7436   36.0842 C   0  0  0  0  0  0  0  0  0  0  0  0
  -16.2128  -24.9065   35.9605 C   0  0  0  0  0  0  0  0  0  0  0  0
  -16.3981  -23.5345   35.4424 N   0  0  0  0  0  0  0  0  0  0  0  0
  -17.5805  -23.1648   34.8043 C   0  0  0  0  0  0  0  0  0  0  0  0
  -18.3694  -22.0178   35.2299 C   0  0  0  0  0  0  0  0  0  0  0  0
  -18.4843  -21.6554   36.5689 C   0  0  0  0  0  0  0  0  0  0  0  0
  -18.9920  -20.4019   36.9004 C   0  0  0  0  0  0  0  0  0  0  0  0
  -19.3511  -19.5391   35.8798 C   0  0  0  0  0  0  0  0  0  0  0  0
  -19.2885  -19.8641   34.5731 N   0  0  0  0  0  0  0  0  0  0  0  0
  -18.8339  -21.1077   34.2858 C   0  0  0  0  0  0  0  0  0  0  0  0
  -17.4117  -23.6237   33.5712 N   0  0  0  0  0  0  0  0  0  0  0  0
  -16.0274  -23.7153   33.3996 N   0  0  0  0  0  0  0  0  0  0  0  0
  -15.5167  -23.0787   34.4499 C   0  0  0  0  0  0  0  0  0  0  0  0
  -14.8790  -21.6549   34.3789 C   0  0  0  0  0  0  0  0  0  0  0  0
  -15.0761  -20.8568   35.7099 C   0  0  0  0  0  0  0  0  0  0  0  0
  -14.6996  -21.4531   36.9255 C   0  0  0  0  0  0  0  0  0  0  0  0
  -14.7553  -20.7760   38.1419 C   0  0  0  0  0  0  0  0  0  0  0  0
  -15.2145  -19.4667   38.1779 C   0  0  0  0  0  0  0  0  0  0  0  0
  -15.6702  -18.8600   37.0091 C   0  0  0  0  0  0  0  0  0  0  0  0
  -16.0436  -17.4753   36.9609 N   0  0  0  0  0  0  0  0  0  0  0  0
  -16.8989  -16.8233   38.2689 S   0  0  0  0  0  0  0  0  0  0  0  0
  -17.9631  -15.6681   37.4423 C   0  0  0  0  0  0  0  0  0  0  0  0
  -15.9314  -16.0738   39.0423 O   0  0  0  0  0  0  0  0  0  0  0  0
  -17.7361  -17.8337   38.8800 O   0  0  0  0  0  0  0  0  0  0  0  0
  -15.5584  -19.5351   35.7828 C   0  0  0  0  0  0  0  0  0  0  0  0
  -15.5597  -20.9173   33.1804 C   0  0  0  0  0  0  0  0  0  0  0  0
  -15.4715  -21.6140   31.8042 C   0  0  0  0  0  0  0  0  0  0  0  0
  -14.1336  -22.2157   31.6192 C   0  0  0  0  0  0  0  0  0  0  0  0
  -13.5378  -22.6465   30.5279 N   0  0  0  0  0  0  0  0  0  0  0  0
  -12.1999  -22.7528   30.8065 N   0  0  0  0  0  0  0  0  0  0  0  0
  -12.0294  -22.3725   32.0540 C   0  0  0  0  0  0  0  0  0  0  0  0
  -10.9283  -22.1455   32.8935 C   0  0  0  0  0  0  0  0  0  0  0  0
  -11.0480  -21.4589   34.0427 C   0  0  0  0  0  0  0  0  0  0  0  0
  -12.3509  -21.2244   34.6087 C   0  0  0  0  0  0  0  0  0  0  0  0
  -13.4312  -21.6729   33.9407 C   0  0  0  0  0  0  0  0  0  0  0  0
  -13.2300  -22.1350   32.6367 N   0  0  0  0  0  0  0  0  0  0  0  0
  -18.5894  -27.4352   35.5102 H   0  0  0  0  0  0  0  0  0  0  0  0
  -16.9477  -27.2358   34.6662 H   0  0  0  0  0  0  0  0  0  0  0  0
  -18.2119  -25.4060   36.7863 H   0  0  0  0  0  0  0  0  0  0  0  0
  -15.7596  -24.7773   36.9497 H   0  0  0  0  0  0  0  0  0  0  0  0
  -15.4888  -25.4137   35.3179 H   0  0  0  0  0  0  0  0  0  0  0  0
  -18.1296  -22.3060   37.3629 H   0  0  0  0  0  0  0  0  0  0  0  0
  -19.0563  -20.0816   37.9357 H   0  0  0  0  0  0  0  0  0  0  0  0
  -19.7122  -18.5378   36.0952 H   0  0  0  0  0  0  0  0  0  0  0  0
  -18.7940  -21.3402   33.2222 H   0  0  0  0  0  0  0  0  0  0  0  0
  -14.3282  -22.4671   36.9157 H   0  0  0  0  0  0  0  0  0  0  0  0
  -14.4213  -21.2650   39.0543 H   0  0  0  0  0  0  0  0  0  0  0  0
  -15.2180  -18.9414   39.1290 H   0  0  0  0  0  0  0  0  0  0  0  0
  -15.2292  -16.8858   36.7724 H   0  0  0  0  0  0  0  0  0  0  0  0
  -18.7200  -16.2257   36.8937 H   0  0  0  0  0  0  0  0  0  0  0  0
  -18.4455  -15.0519   38.2045 H   0  0  0  0  0  0  0  0  0  0  0  0
  -17.3671  -15.0369   36.7811 H   0  0  0  0  0  0  0  0  0  0  0  0
  -15.8795  -19.0017   34.8933 H   0  0  0  0  0  0  0  0  0  0  0  0
  -15.1231  -19.9200   33.0795 H   0  0  0  0  0  0  0  0  0  0  0  0
  -16.6085  -20.7099   33.3715 H   0  0  0  0  0  0  0  0  0  0  0  0
  -16.2698  -22.3373   31.6516 H   0  0  0  0  0  0  0  0  0  0  0  0
  -15.6425  -20.8521   31.0439 H   0  0  0  0  0  0  0  0  0  0  0  0
   -9.9869  -22.5814   32.6344 H   0  0  0  0  0  0  0  0  0  0  0  0
  -10.1888  -21.2712   34.6665 H   0  0  0  0  0  0  0  0  0  0  0  0
  -12.3812  -20.7962   35.6024 H   0  0  0  0  0  0  0  0  0  0  0  0
  1  2  2  0
  2  3  1  0
  3  4  1  0
  4  5  1  0
  5  6  1  0
  6  7  2  0
  7  8  1  0
  8  9  2  0
  9 10  1  0
 10 11  2  0
  5 12  2  0
 12 13  1  0
 13 14  2  0
 14 15  1  0
 15 16  1  0
 16 17  2  0
 17 18  1  0
 18 19  2  0
 19 20  1  0
 20 21  1  0
 21 22  1  0
 22 23  1  0
 22 24  2  0
 22 25  2  0
 20 26  2  0
 15 27  1  0
 27 28  1  0
 28 29  1  0
 29 30  2  0
 30 31  1  0
 31 32  2  0
 32 33  1  0
 33 34  2  0
 34 35  1  0
 35 36  2  0
 36 37  1  0
 14  4  1  0
 36 15  1  0
 11  6  1  0
 26 16  1  0
 37 29  1  0
 37 32  1  0
  1 38  1  0
  1 39  1  0
  2 40  1  0
  3 41  1  0
  3 42  1  0
  7 43  1  0
  8 44  1  0
  9 45  1  0
 11 46  1  0
 17 47  1  0
 18 48  1  0
 19 49  1  0
 21 50  1  0
 23 51  1  0
 23 52  1  0
 23 53  1  0
 26 54  1  0
 27 55  1  0
 27 56  1  0
 28 57  1  0
 28 58  1  0
 33 59  1  0
 34 60  1  0
 35 61  1  0
M  END
>  <Energy>  (1125) 
121.77925135517194

>  <compound_id>  (1125) 
3722

>  <target_id>  (1125) 
1

>  <reference_id>  (1125) 
161

>  <inspiration_ids>  (1125) 
[161, 52]

>  <energy_score>  (1125) 
-30.60778222991445

>  <distance_score>  (1125) 
2.7047091802548655

>  <path>  (1125) 
/opt/xchem-fragalysis-2/maxwin/BulkDock/SCRATCH/505735/C3722-P161/C3722-P161.minimised.mol

>  <scratch_subdir>  (1125) 
/opt/xchem-fragalysis-2/maxwin/BulkDock/SCRATCH/505735/C3722-P161

>  <fragmenstein_runtime>  (1125) 
18.426194190979004

>  <fragmenstein_outcome>  (1125) 
too moved

>  <fragmenstein_mode>  (1125) 
expansion

>  <fragmenstein_error>  (1125) 


$$$$
C3722-P52
     RDKit          3D

 61 66  0  0  0  0  0  0  0  0999 V2000
  -21.0818  -23.5716   37.7123 C   0  0  0  0  0  0  0  0  0  0  0  0
  -19.8069  -23.3320   37.3733 C   0  0  0  0  0  0  0  0  0  0  0  0
  -18.8519  -22.5187   38.1948 C   0  0  0  0  0  0  0  0  0  0  0  0
  -18.2890  -21.3481   37.5368 N   0  0  0  0  0  0  0  0  0  0  0  0
  -18.6419  -20.0416   37.7788 C   0  0  0  0  0  0  0  0  0  0  0  0
  -19.9785  -19.5206   37.9402 C   0  0  0  0  0  0  0  0  0  0  0  0
  -21.0634  -20.0290   37.2216 C   0  0  0  0  0  0  0  0  0  0  0  0
  -22.3055  -19.4151   37.3243 C   0  0  0  0  0  0  0  0  0  0  0  0
  -22.4163  -18.2995   38.1356 C   0  0  0  0  0  0  0  0  0  0  0  0
  -21.3892  -17.7696   38.8316 N   0  0  0  0  0  0  0  0  0  0  0  0
  -20.1898  -18.3820   38.7045 C   0  0  0  0  0  0  0  0  0  0  0  0
  -17.5543  -19.3031   37.6967 N   0  0  0  0  0  0  0  0  0  0  0  0
  -16.6067  -20.0488   37.0682 N   0  0  0  0  0  0  0  0  0  0  0  0
  -17.1238  -21.2380   36.8187 C   0  0  0  0  0  0  0  0  0  0  0  0
  -16.7394  -22.0917   35.6205 C   0  0  0  0  0  0  0  0  0  0  0  0
  -16.6766  -23.6175   35.9940 C   0  0  0  0  0  0  0  0  0  0  0  0
  -16.0566  -24.0702   37.1740 C   0  0  0  0  0  0  0  0  0  0  0  0
  -15.9847  -25.4282   37.5124 C   0  0  0  0  0  0  0  0  0  0  0  0
  -16.5297  -26.3901   36.6744 C   0  0  0  0  0  0  0  0  0  0  0  0
  -17.1284  -25.9849   35.4928 C   0  0  0  0  0  0  0  0  0  0  0  0
  -17.6488  -26.9713   34.6044 N   0  0  0  0  0  0  0  0  0  0  0  0
  -19.3120  -27.2720   34.6653 S   0  0  0  0  0  0  0  0  0  0  0  0
  -19.3918  -28.5689   35.8807 C   0  0  0  0  0  0  0  0  0  0  0  0
  -19.6433  -27.8549   33.3819 O   0  0  0  0  0  0  0  0  0  0  0  0
  -20.0154  -26.1104   35.1606 O   0  0  0  0  0  0  0  0  0  0  0  0
  -17.2168  -24.6262   35.1664 C   0  0  0  0  0  0  0  0  0  0  0  0
  -17.9291  -21.8270   34.5781 C   0  0  0  0  0  0  0  0  0  0  0  0
  -17.9952  -20.3892   34.0367 C   0  0  0  0  0  0  0  0  0  0  0  0
  -16.6873  -20.0363   33.4629 C   0  0  0  0  0  0  0  0  0  0  0  0
  -16.4005  -19.2817   32.4279 N   0  0  0  0  0  0  0  0  0  0  0  0
  -15.0489  -19.3766   32.2238 N   0  0  0  0  0  0  0  0  0  0  0  0
  -14.5319  -20.1434   33.1587 C   0  0  0  0  0  0  0  0  0  0  0  0
  -13.2156  -20.6066   33.4232 C   0  0  0  0  0  0  0  0  0  0  0  0
  -13.0299  -21.4681   34.4357 C   0  0  0  0  0  0  0  0  0  0  0  0
  -14.1532  -21.9351   35.2405 C   0  0  0  0  0  0  0  0  0  0  0  0
  -15.4156  -21.5300   35.0014 C   0  0  0  0  0  0  0  0  0  0  0  0
  -15.5485  -20.5947   33.9714 N   0  0  0  0  0  0  0  0  0  0  0  0
  -21.7068  -24.1967   37.0788 H   0  0  0  0  0  0  0  0  0  0  0  0
  -21.5282  -23.1650   38.6145 H   0  0  0  0  0  0  0  0  0  0  0  0
  -19.4389  -23.7999   36.4676 H   0  0  0  0  0  0  0  0  0  0  0  0
  -19.3436  -22.1583   39.1079 H   0  0  0  0  0  0  0  0  0  0  0  0
  -18.0280  -23.1422   38.5423 H   0  0  0  0  0  0  0  0  0  0  0  0
  -20.9494  -20.8682   36.5427 H   0  0  0  0  0  0  0  0  0  0  0  0
  -23.1615  -19.7847   36.7712 H   0  0  0  0  0  0  0  0  0  0  0  0
  -23.3642  -17.7802   38.2459 H   0  0  0  0  0  0  0  0  0  0  0  0
  -19.3738  -17.9046   39.2426 H   0  0  0  0  0  0  0  0  0  0  0  0
  -15.6287  -23.3695   37.8814 H   0  0  0  0  0  0  0  0  0  0  0  0
  -15.4740  -25.7261   38.4249 H   0  0  0  0  0  0  0  0  0  0  0  0
  -16.4523  -27.4408   36.9313 H   0  0  0  0  0  0  0  0  0  0  0  0
  -17.3794  -26.8195   33.6290 H   0  0  0  0  0  0  0  0  0  0  0  0
  -19.0793  -28.1733   36.8482 H   0  0  0  0  0  0  0  0  0  0  0  0
  -20.4280  -28.9093   35.9396 H   0  0  0  0  0  0  0  0  0  0  0  0
  -18.7494  -29.3927   35.5645 H   0  0  0  0  0  0  0  0  0  0  0  0
  -17.6926  -24.3814   34.2228 H   0  0  0  0  0  0  0  0  0  0  0  0
  -18.9033  -22.0687   35.0175 H   0  0  0  0  0  0  0  0  0  0  0  0
  -17.8518  -22.4713   33.6993 H   0  0  0  0  0  0  0  0  0  0  0  0
  -18.2729  -19.6730   34.8149 H   0  0  0  0  0  0  0  0  0  0  0  0
  -18.7693  -20.3311   33.2629 H   0  0  0  0  0  0  0  0  0  0  0  0
  -12.3911  -20.2698   32.8090 H   0  0  0  0  0  0  0  0  0  0  0  0
  -12.0461  -21.8564   34.6777 H   0  0  0  0  0  0  0  0  0  0  0  0
  -13.9468  -22.6811   35.9859 H   0  0  0  0  0  0  0  0  0  0  0  0
  1  2  2  0
  2  3  1  0
  3  4  1  0
  4  5  1  0
  5  6  1  0
  6  7  2  0
  7  8  1  0
  8  9  2  0
  9 10  1  0
 10 11  2  0
  5 12  2  0
 12 13  1  0
 13 14  2  0
 14 15  1  0
 15 16  1  0
 16 17  2  0
 17 18  1  0
 18 19  2  0
 19 20  1  0
 20 21  1  0
 21 22  1  0
 22 23  1  0
 22 24  2  0
 22 25  2  0
 20 26  2  0
 15 27  1  0
 27 28  1  0
 28 29  1  0
 29 30  2  0
 30 31  1  0
 31 32  2  0
 32 33  1  0
 33 34  2  0
 34 35  1  0
 35 36  2  0
 36 37  1  0
 14  4  1  0
 36 15  1  0
 11  6  1  0
 26 16  1  0
 37 29  1  0
 37 32  1  0
  1 38  1  0
  1 39  1  0
  2 40  1  0
  3 41  1  0
  3 42  1  0
  7 43  1  0
  8 44  1  0
  9 45  1  0
 11 46  1  0
 17 47  1  0
 18 48  1  0
 19 49  1  0
 21 50  1  0
 23 51  1  0
 23 52  1  0
 23 53  1  0
 26 54  1  0
 27 55  1  0
 27 56  1  0
 28 57  1  0
 28 58  1  0
 33 59  1  0
 34 60  1  0
 35 61  1  0
M  END
>  <Energy>  (1126) 
65.744556703122356

>  <compound_id>  (1126) 
3722

>  <target_id>  (1126) 
1

>  <reference_id>  (1126) 
52

>  <inspiration_ids>  (1126) 
[161, 52]

>  <energy_score>  (1126) 
-55.28767393897624

>  <distance_score>  (1126) 
5.086312702833798

>  <path>  (1126) 
/opt/xchem-fragalysis-2/maxwin/BulkDock/SCRATCH/505735/C3722-P52/C3722-P52.minimised.mol

>  <scratch_subdir>  (1126) 
/opt/xchem-fragalysis-2/maxwin/BulkDock/SCRATCH/505735/C3722-P52

>  <fragmenstein_runtime>  (1126) 
63.97460579872131

>  <fragmenstein_outcome>  (1126) 
too moved

>  <fragmenstein_mode>  (1126) 
expansion

>  <fragmenstein_error>  (1126) 


$$$$
C3825-P161
     RDKit          3D

 61 66  0  0  0  0  0  0  0  0999 V2000
  -17.3436  -23.7850   33.4346 C   0  0  0  0  0  0  0  0  0  0  0  0
  -16.0632  -23.4897   33.1693 C   0  0  0  0  0  0  0  0  0  0  0  0
  -14.9596  -23.5001   34.1856 C   0  0  0  0  0  0  0  0  0  0  0  0
  -14.2460  -22.2116   34.4113 N   0  0  0  0  0  0  0  0  0  0  0  0
  -14.9913  -21.2883   35.1806 C   0  0  0  0  0  0  0  0  0  0  0  0
  -16.3253  -20.7525   34.9201 C   0  0  0  0  0  0  0  0  0  0  0  0
  -17.1996  -20.5402   35.9953 C   0  0  0  0  0  0  0  0  0  0  0  0
  -18.4735  -20.0266   35.7812 C   0  0  0  0  0  0  0  0  0  0  0  0
  -18.8405  -19.7315   34.4838 C   0  0  0  0  0  0  0  0  0  0  0  0
  -18.0344  -19.9111   33.4139 N   0  0  0  0  0  0  0  0  0  0  0  0
  -16.7953  -20.4136   33.6600 C   0  0  0  0  0  0  0  0  0  0  0  0
  -14.4145  -21.2238   36.3591 N   0  0  0  0  0  0  0  0  0  0  0  0
  -13.2373  -21.8813   36.2873 N   0  0  0  0  0  0  0  0  0  0  0  0
  -12.9506  -22.1864   35.0326 C   0  0  0  0  0  0  0  0  0  0  0  0
  -11.3153  -22.0551   34.3737 C   0  0  0  0  0  0  0  0  0  0  0  0
  -10.8106  -20.7770   35.0658 C   0  0  0  0  0  0  0  0  0  0  0  0
  -10.9499  -20.4252   36.4116 C   0  0  0  0  0  0  0  0  0  0  0  0
  -10.3215  -19.3391   37.0402 C   0  0  0  0  0  0  0  0  0  0  0  0
   -9.4165  -18.6161   36.3089 C   0  0  0  0  0  0  0  0  0  0  0  0
   -8.4428  -17.8208   36.8308 O   0  0  0  0  0  0  0  0  0  0  0  0
   -8.5453  -17.4884   38.2073 C   0  0  0  0  0  0  0  0  0  0  0  0
   -9.4198  -18.8619   34.9418 C   0  0  0  0  0  0  0  0  0  0  0  0
   -8.4450  -18.4005   34.1197 O   0  0  0  0  0  0  0  0  0  0  0  0
   -7.6872  -19.4856   33.5564 C   0  0  0  0  0  0  0  0  0  0  0  0
  -10.2735  -19.7728   34.3479 C   0  0  0  0  0  0  0  0  0  0  0  0
  -11.6370  -21.9677   32.7959 C   0  0  0  0  0  0  0  0  0  0  0  0
  -12.4859  -23.0164   32.0245 C   0  0  0  0  0  0  0  0  0  0  0  0
  -12.1795  -24.4241   32.3825 C   0  0  0  0  0  0  0  0  0  0  0  0
  -12.8599  -25.5011   32.6734 N   0  0  0  0  0  0  0  0  0  0  0  0
  -11.8671  -26.9426   33.2471 N   0  0  0  0  0  0  0  0  0  0  0  0
  -10.5628  -26.8180   33.2768 C   0  0  0  0  0  0  0  0  0  0  0  0
   -9.1126  -27.3300   34.5923 C   0  0  0  0  0  0  0  0  0  0  0  0
   -9.2611  -26.2713   36.0472 C   0  0  0  0  0  0  0  0  0  0  0  0
   -9.9346  -24.4339   35.8795 C   0  0  0  0  0  0  0  0  0  0  0  0
  -10.0161  -23.5364   34.4051 C   0  0  0  0  0  0  0  0  0  0  0  0
  -10.7431  -24.8316   33.0236 N   0  0  0  0  0  0  0  0  0  0  0  0
  -18.0805  -23.7892   32.6361 H   0  0  0  0  0  0  0  0  0  0  0  0
  -17.6822  -24.0304   34.4357 H   0  0  0  0  0  0  0  0  0  0  0  0
  -15.7898  -23.2919   32.1347 H   0  0  0  0  0  0  0  0  0  0  0  0
  -14.2266  -24.2077   33.8528 H   0  0  0  0  0  0  0  0  0  0  0  0
  -15.3227  -23.8323   35.1673 H   0  0  0  0  0  0  0  0  0  0  0  0
  -16.8841  -20.7756   37.0104 H   0  0  0  0  0  0  0  0  0  0  0  0
  -19.1536  -19.8517   36.6063 H   0  0  0  0  0  0  0  0  0  0  0  0
  -19.8214  -19.3195   34.2675 H   0  0  0  0  0  0  0  0  0  0  0  0
  -16.1826  -20.5415   32.7731 H   0  0  0  0  0  0  0  0  0  0  0  0
  -11.6047  -20.9852   37.0390 H   0  0  0  0  0  0  0  0  0  0  0  0
  -10.4741  -19.1988   38.1017 H   0  0  0  0  0  0  0  0  0  0  0  0
   -8.3443  -18.3645   38.8325 H   0  0  0  0  0  0  0  0  0  0  0  0
   -9.5194  -17.0533   38.4509 H   0  0  0  0  0  0  0  0  0  0  0  0
   -7.7798  -16.7391   38.4302 H   0  0  0  0  0  0  0  0  0  0  0  0
   -6.7613  -19.6659   34.0898 H   0  0  0  0  0  0  0  0  0  0  0  0
   -8.1664  -20.4558   33.5564 H   0  0  0  0  0  0  0  0  0  0  0  0
   -7.4587  -19.2043   32.5412 H   0  0  0  0  0  0  0  0  0  0  0  0
  -10.3397  -19.7846   33.2886 H   0  0  0  0  0  0  0  0  0  0  0  0
  -10.6766  -22.1399   32.3497 H   0  0  0  0  0  0  0  0  0  0  0  0
  -12.0063  -20.9783   32.5366 H   0  0  0  0  0  0  0  0  0  0  0  0
  -13.5470  -22.8006   32.1025 H   0  0  0  0  0  0  0  0  0  0  0  0
  -12.2726  -22.8947   30.9541 H   0  0  0  0  0  0  0  0  0  0  0  0
   -8.3119  -28.0293   34.6977 H   0  0  0  0  0  0  0  0  0  0  0  0
   -8.6505  -26.6018   36.8868 H   0  0  0  0  0  0  0  0  0  0  0  0
   -9.9681  -23.8626   36.7820 H   0  0  0  0  0  0  0  0  0  0  0  0
  1  2  2  0
  2  3  1  0
  3  4  1  0
  4  5  1  0
  5  6  1  0
  6  7  2  0
  7  8  1  0
  8  9  2  0
  9 10  1  0
 10 11  2  0
  5 12  2  0
 12 13  1  0
 13 14  2  0
 14 15  1  0
 15 16  1  0
 16 17  2  0
 17 18  1  0
 18 19  2  0
 19 20  1  0
 20 21  1  0
 19 22  1  0
 22 23  1  0
 23 24  1  0
 22 25  2  0
 15 26  1  0
 26 27  1  0
 27 28  1  0
 28 29  2  0
 29 30  1  0
 30 31  2  0
 31 32  1  0
 32 33  2  0
 33 34  1  0
 34 35  2  0
 35 36  1  0
 14  4  1  0
 35 15  1  0
 11  6  1  0
 25 16  1  0
 36 28  1  0
 36 31  1  0
  1 37  1  0
  1 38  1  0
  2 39  1  0
  3 40  1  0
  3 41  1  0
  7 42  1  0
  8 43  1  0
  9 44  1  0
 11 45  1  0
 17 46  1  0
 18 47  1  0
 21 48  1  0
 21 49  1  0
 21 50  1  0
 24 51  1  0
 24 52  1  0
 24 53  1  0
 25 54  1  0
 26 55  1  0
 26 56  1  0
 27 57  1  0
 27 58  1  0
 32 59  1  0
 33 60  1  0
 34 61  1  0
M  END
>  <Energy>  (1127) 
937.35219634148234

>  <compound_id>  (1127) 
3825

>  <target_id>  (1127) 
1

>  <reference_id>  (1127) 
161

>  <inspiration_ids>  (1127) 
[161, 82]

>  <energy_score>  (1127) 
695.1909890551078

>  <distance_score>  (1127) 
2.6811135630913006

>  <path>  (1127) 
/opt/xchem-fragalysis-2/maxwin/BulkDock/SCRATCH/505735/C3825-P161/C3825-P161.minimised.mol

>  <scratch_subdir>  (1127) 
/opt/xchem-fragalysis-2/maxwin/BulkDock/SCRATCH/505735/C3825-P161

>  <fragmenstein_runtime>  (1127) 
20.86624050140381

>  <fragmenstein_outcome>  (1127) 
too moved

>  <fragmenstein_mode>  (1127) 
expansion

>  <fragmenstein_error>  (1127) 


$$$$
C3825-P82
     RDKit          3D

 61 66  0  0  0  0  0  0  0  0999 V2000
  -16.9351  -26.2889   35.5362 C   0  0  0  0  0  0  0  0  0  0  0  0
  -16.5753  -25.6451   34.4173 C   0  0  0  0  0  0  0  0  0  0  0  0
  -15.6952  -24.4198   34.3953 C   0  0  0  0  0  0  0  0  0  0  0  0
  -15.9494  -23.5484   33.2714 N   0  0  0  0  0  0  0  0  0  0  0  0
  -17.0762  -22.7433   33.1355 C   0  0  0  0  0  0  0  0  0  0  0  0
  -17.8284  -22.0349   34.1892 C   0  0  0  0  0  0  0  0  0  0  0  0
  -18.1708  -22.5222   35.4447 C   0  0  0  0  0  0  0  0  0  0  0  0
  -18.7059  -21.6602   36.4098 C   0  0  0  0  0  0  0  0  0  0  0  0
  -18.8936  -20.3249   36.0937 C   0  0  0  0  0  0  0  0  0  0  0  0
  -18.6250  -19.8131   34.8814 N   0  0  0  0  0  0  0  0  0  0  0  0
  -18.1402  -20.6888   33.9625 C   0  0  0  0  0  0  0  0  0  0  0  0
  -17.1080  -22.3825   31.8665 N   0  0  0  0  0  0  0  0  0  0  0  0
  -15.8745  -22.6140   31.3222 N   0  0  0  0  0  0  0  0  0  0  0  0
  -15.0800  -23.1428   32.2474 C   0  0  0  0  0  0  0  0  0  0  0  0
  -13.5645  -22.7306   32.3609 C   0  0  0  0  0  0  0  0  0  0  0  0
  -13.6573  -21.4249   33.3519 C   0  0  0  0  0  0  0  0  0  0  0  0
  -14.8287  -20.6195   33.3537 C   0  0  0  0  0  0  0  0  0  0  0  0
  -15.0816  -19.5367   34.2060 C   0  0  0  0  0  0  0  0  0  0  0  0
  -14.0951  -19.0757   35.0356 C   0  0  0  0  0  0  0  0  0  0  0  0
  -14.2851  -18.0657   35.9325 O   0  0  0  0  0  0  0  0  0  0  0  0
  -15.6206  -17.8343   36.3729 C   0  0  0  0  0  0  0  0  0  0  0  0
  -12.8365  -19.6642   34.8948 C   0  0  0  0  0  0  0  0  0  0  0  0
  -11.7403  -19.2220   35.5742 O   0  0  0  0  0  0  0  0  0  0  0  0
  -11.6208  -17.8198   35.8018 C   0  0  0  0  0  0  0  0  0  0  0  0
  -12.6352  -20.8433   34.0925 C   0  0  0  0  0  0  0  0  0  0  0  0
  -13.0617  -22.0570   31.0493 C   0  0  0  0  0  0  0  0  0  0  0  0
  -12.3418  -22.7022   29.8594 C   0  0  0  0  0  0  0  0  0  0  0  0
  -11.8603  -24.0267   30.1528 C   0  0  0  0  0  0  0  0  0  0  0  0
  -11.1238  -24.8094   29.3978 N   0  0  0  0  0  0  0  0  0  0  0  0
  -10.4292  -25.6210   30.2496 N   0  0  0  0  0  0  0  0  0  0  0  0
  -10.7938  -25.2918   31.4686 C   0  0  0  0  0  0  0  0  0  0  0  0
  -10.2775  -25.5877   32.7275 C   0  0  0  0  0  0  0  0  0  0  0  0
  -10.9591  -25.2063   33.8105 C   0  0  0  0  0  0  0  0  0  0  0  0
  -12.0463  -24.2580   33.7416 C   0  0  0  0  0  0  0  0  0  0  0  0
  -12.5161  -23.8429   32.5658 C   0  0  0  0  0  0  0  0  0  0  0  0
  -11.8538  -24.4154   31.4476 N   0  0  0  0  0  0  0  0  0  0  0  0
  -17.5719  -27.1669   35.4888 H   0  0  0  0  0  0  0  0  0  0  0  0
  -16.5968  -25.9666   36.5178 H   0  0  0  0  0  0  0  0  0  0  0  0
  -16.9350  -26.0139   33.4557 H   0  0  0  0  0  0  0  0  0  0  0  0
  -14.6475  -24.7077   34.3801 H   0  0  0  0  0  0  0  0  0  0  0  0
  -15.8929  -23.7981   35.2564 H   0  0  0  0  0  0  0  0  0  0  0  0
  -18.0322  -23.5635   35.7110 H   0  0  0  0  0  0  0  0  0  0  0  0
  -18.9564  -22.0318   37.3984 H   0  0  0  0  0  0  0  0  0  0  0  0
  -19.2892  -19.6238   36.8225 H   0  0  0  0  0  0  0  0  0  0  0  0
  -17.9609  -20.2401   32.9858 H   0  0  0  0  0  0  0  0  0  0  0  0
  -15.5900  -20.7497   32.5953 H   0  0  0  0  0  0  0  0  0  0  0  0
  -16.0407  -19.0362   34.1454 H   0  0  0  0  0  0  0  0  0  0  0  0
  -16.1027  -18.7631   36.6958 H   0  0  0  0  0  0  0  0  0  0  0  0
  -16.2064  -17.3327   35.5978 H   0  0  0  0  0  0  0  0  0  0  0  0
  -15.5734  -17.1653   37.2375 H   0  0  0  0  0  0  0  0  0  0  0  0
  -10.5553  -17.5711   35.8121 H   0  0  0  0  0  0  0  0  0  0  0  0
  -12.0898  -17.2153   35.0203 H   0  0  0  0  0  0  0  0  0  0  0  0
  -12.0219  -17.5683   36.7882 H   0  0  0  0  0  0  0  0  0  0  0  0
  -11.6569  -21.2815   34.0488 H   0  0  0  0  0  0  0  0  0  0  0  0
  -12.3185  -21.3172   31.3700 H   0  0  0  0  0  0  0  0  0  0  0  0
  -13.9333  -21.5698   30.6419 H   0  0  0  0  0  0  0  0  0  0  0  0
  -12.8703  -22.6734   28.9133 H   0  0  0  0  0  0  0  0  0  0  0  0
  -11.4705  -22.0703   29.6318 H   0  0  0  0  0  0  0  0  0  0  0  0
   -9.3296  -26.0815   32.7647 H   0  0  0  0  0  0  0  0  0  0  0  0
  -10.6415  -25.4965   34.7932 H   0  0  0  0  0  0  0  0  0  0  0  0
  -12.3781  -23.8129   34.6517 H   0  0  0  0  0  0  0  0  0  0  0  0
  1  2  2  0
  2  3  1  0
  3  4  1  0
  4  5  1  0
  5  6  1  0
  6  7  2  0
  7  8  1  0
  8  9  2  0
  9 10  1  0
 10 11  2  0
  5 12  2  0
 12 13  1  0
 13 14  2  0
 14 15  1  0
 15 16  1  0
 16 17  2  0
 17 18  1  0
 18 19  2  0
 19 20  1  0
 20 21  1  0
 19 22  1  0
 22 23  1  0
 23 24  1  0
 22 25  2  0
 15 26  1  0
 26 27  1  0
 27 28  1  0
 28 29  2  0
 29 30  1  0
 30 31  2  0
 31 32  1  0
 32 33  2  0
 33 34  1  0
 34 35  2  0
 35 36  1  0
 14  4  1  0
 35 15  1  0
 11  6  1  0
 25 16  1  0
 36 28  1  0
 36 31  1  0
  1 37  1  0
  1 38  1  0
  2 39  1  0
  3 40  1  0
  3 41  1  0
  7 42  1  0
  8 43  1  0
  9 44  1  0
 11 45  1  0
 17 46  1  0
 18 47  1  0
 21 48  1  0
 21 49  1  0
 21 50  1  0
 24 51  1  0
 24 52  1  0
 24 53  1  0
 25 54  1  0
 26 55  1  0
 26 56  1  0
 27 57  1  0
 27 58  1  0
 32 59  1  0
 33 60  1  0
 34 61  1  0
M  END
>  <Energy>  (1128) 
201.28187957251774

>  <compound_id>  (1128) 
3825

>  <target_id>  (1128) 
1

>  <reference_id>  (1128) 
82

>  <inspiration_ids>  (1128) 
[161, 82]

>  <energy_score>  (1128) 
20.691906074380313

>  <distance_score>  (1128) 
2.111822161308713

>  <path>  (1128) 
/opt/xchem-fragalysis-2/maxwin/BulkDock/SCRATCH/505735/C3825-P82/C3825-P82.minimised.mol

>  <scratch_subdir>  (1128) 
/opt/xchem-fragalysis-2/maxwin/BulkDock/SCRATCH/505735/C3825-P82

>  <fragmenstein_runtime>  (1128) 
17.756070137023926

>  <fragmenstein_outcome>  (1128) 
too moved

>  <fragmenstein_mode>  (1128) 
expansion

>  <fragmenstein_error>  (1128) 


$$$$
C3825-P161
     RDKit          2D

  0  0  0  0  0  0  0  0  0  0999 V2000
M  END
>  <compound_id>  (1129) 
3825

>  <target_id>  (1129) 
1

>  <reference_id>  (1129) 
161

>  <inspiration_ids>  (1129) 
[161, 88]

>  <energy_score>  (1129) 
nan

>  <distance_score>  (1129) 
nan

>  <path>  (1129) 
/opt/xchem-fragalysis-2/maxwin/BulkDock/SCRATCH/505735/C3825-P161/C3825-P161.minimised.mol

>  <scratch_subdir>  (1129) 
/opt/xchem-fragalysis-2/maxwin/BulkDock/SCRATCH/505735/C3825-P161

>  <fragmenstein_runtime>  (1129) 
1.1795017719268799

>  <fragmenstein_outcome>  (1129) 
too distant

>  <fragmenstein_mode>  (1129) 
expansion

>  <fragmenstein_error>  (1129) 
DistanceError: hit0

$$$$
C4537-P161
     RDKit          3D

 63 69  0  0  0  0  0  0  0  0999 V2000
  -16.5783  -26.3865   32.1289 C   0  0  0  0  0  0  0  0  0  0  0  0
  -16.4456  -25.4481   33.0758 C   0  0  0  0  0  0  0  0  0  0  0  0
  -15.3331  -24.4424   33.1785 C   0  0  0  0  0  0  0  0  0  0  0  0
  -15.5781  -23.1647   32.5250 N   0  0  0  0  0  0  0  0  0  0  0  0
  -14.7557  -22.5913   31.5783 C   0  0  0  0  0  0  0  0  0  0  0  0
  -13.7660  -23.2129   30.7001 C   0  0  0  0  0  0  0  0  0  0  0  0
  -14.1126  -24.2556   29.8413 C   0  0  0  0  0  0  0  0  0  0  0  0
  -13.3824  -24.4705   28.6755 C   0  0  0  0  0  0  0  0  0  0  0  0
  -12.2952  -23.6590   28.4224 C   0  0  0  0  0  0  0  0  0  0  0  0
  -11.8727  -22.7168   29.2788 N   0  0  0  0  0  0  0  0  0  0  0  0
  -12.5910  -22.5375   30.4116 C   0  0  0  0  0  0  0  0  0  0  0  0
  -15.1288  -21.3313   31.4315 N   0  0  0  0  0  0  0  0  0  0  0  0
  -16.2271  -21.0893   32.1788 N   0  0  0  0  0  0  0  0  0  0  0  0
  -16.5102  -22.1913   32.8392 C   0  0  0  0  0  0  0  0  0  0  0  0
  -17.6563  -22.4334   33.6303 C   0  0  0  0  0  0  0  0  0  0  0  0
  -18.6999  -23.3382   33.1058 C   0  0  0  0  0  0  0  0  0  0  0  0
  -19.8341  -23.6118   33.7641 C   0  0  0  0  0  0  0  0  0  0  0  0
  -20.0964  -22.9144   34.9567 C   0  0  0  0  0  0  0  0  0  0  0  0
  -21.1305  -22.8998   35.7666 N   0  0  0  0  0  0  0  0  0  0  0  0
  -20.9365  -21.8764   36.6631 N   0  0  0  0  0  0  0  0  0  0  0  0
  -19.7925  -21.2973   36.3713 C   0  0  0  0  0  0  0  0  0  0  0  0
  -19.1629  -21.9845   35.3673 N   0  0  0  0  0  0  0  0  0  0  0  0
  -17.9069  -21.7346   34.7757 C   0  0  0  0  0  0  0  0  0  0  0  0
  -17.0758  -20.6709   35.5407 C   0  0  0  0  0  0  0  0  0  0  0  0
  -18.0312  -19.5619   36.0951 C   0  0  0  0  0  0  0  0  0  0  0  0
  -19.2322  -20.0497   36.9159 C   0  0  0  0  0  0  0  0  0  0  0  0
  -15.8637  -19.9907   34.8587 C   0  0  0  0  0  0  0  0  0  0  0  0
  -15.0291  -19.3271   35.9548 C   0  0  0  0  0  0  0  0  0  0  0  0
  -14.8199  -20.3631   37.0812 C   0  0  0  0  0  0  0  0  0  0  0  0
  -14.6887  -19.8182   38.4948 C   0  0  0  0  0  0  0  0  0  0  0  0
  -14.4911  -18.4507   38.7579 C   0  0  0  0  0  0  0  0  0  0  0  0
  -14.3587  -17.9709   40.0656 C   0  0  0  0  0  0  0  0  0  0  0  0
  -14.4006  -18.8496   41.1413 C   0  0  0  0  0  0  0  0  0  0  0  0
  -14.5529  -20.2100   40.9060 C   0  0  0  0  0  0  0  0  0  0  0  0
  -14.6731  -20.6891   39.5977 C   0  0  0  0  0  0  0  0  0  0  0  0
  -16.2092  -21.5357   36.9144 S   0  0  0  0  0  0  0  0  0  0  0  0
  -17.0551  -21.5532   38.0881 O   0  0  0  0  0  0  0  0  0  0  0  0
  -15.6758  -22.7869   36.3989 O   0  0  0  0  0  0  0  0  0  0  0  0
  -17.3901  -27.1052   32.1711 H   0  0  0  0  0  0  0  0  0  0  0  0
  -15.8603  -26.4877   31.3230 H   0  0  0  0  0  0  0  0  0  0  0  0
  -17.1502  -25.4556   33.9051 H   0  0  0  0  0  0  0  0  0  0  0  0
  -14.4034  -24.8400   32.7674 H   0  0  0  0  0  0  0  0  0  0  0  0
  -15.1421  -24.2188   34.2316 H   0  0  0  0  0  0  0  0  0  0  0  0
  -15.0239  -24.8223   29.9973 H   0  0  0  0  0  0  0  0  0  0  0  0
  -13.6785  -25.2318   27.9630 H   0  0  0  0  0  0  0  0  0  0  0  0
  -11.7090  -23.7598   27.5138 H   0  0  0  0  0  0  0  0  0  0  0  0
  -12.2131  -21.7541   31.0637 H   0  0  0  0  0  0  0  0  0  0  0  0
  -18.5175  -23.8027   32.1384 H   0  0  0  0  0  0  0  0  0  0  0  0
  -20.5810  -24.2916   33.3722 H   0  0  0  0  0  0  0  0  0  0  0  0
  -17.5074  -18.8329   36.7200 H   0  0  0  0  0  0  0  0  0  0  0  0
  -18.4168  -19.0002   35.2326 H   0  0  0  0  0  0  0  0  0  0  0  0
  -20.0037  -19.2699   36.9025 H   0  0  0  0  0  0  0  0  0  0  0  0
  -18.9699  -20.1815   37.9691 H   0  0  0  0  0  0  0  0  0  0  0  0
  -16.1730  -19.2595   34.1064 H   0  0  0  0  0  0  0  0  0  0  0  0
  -15.1991  -20.7195   34.3878 H   0  0  0  0  0  0  0  0  0  0  0  0
  -14.0612  -18.9966   35.5594 H   0  0  0  0  0  0  0  0  0  0  0  0
  -15.5405  -18.4224   36.2922 H   0  0  0  0  0  0  0  0  0  0  0  0
  -13.9159  -20.9430   36.8532 H   0  0  0  0  0  0  0  0  0  0  0  0
  -14.4222  -17.7188   37.9569 H   0  0  0  0  0  0  0  0  0  0  0  0
  -14.2193  -16.9068   40.2396 H   0  0  0  0  0  0  0  0  0  0  0  0
  -14.3035  -18.4780   42.1573 H   0  0  0  0  0  0  0  0  0  0  0  0
  -14.5666  -20.9118   41.7363 H   0  0  0  0  0  0  0  0  0  0  0  0
  -14.7598  -21.7671   39.4606 H   0  0  0  0  0  0  0  0  0  0  0  0
  1  2  2  0
  2  3  1  0
  3  4  1  0
  4  5  1  0
  5  6  1  0
  6  7  2  0
  7  8  1  0
  8  9  2  0
  9 10  1  0
 10 11  2  0
  5 12  2  0
 12 13  1  0
 13 14  2  0
 14 15  1  0
 15 16  1  0
 16 17  2  0
 17 18  1  0
 18 19  2  0
 19 20  1  0
 20 21  2  0
 21 22  1  0
 22 23  1  0
 23 24  1  0
 24 25  1  0
 25 26  1  0
 24 27  1  0
 27 28  1  0
 28 29  1  0
 29 30  1  0
 30 31  2  0
 31 32  1  0
 32 33  2  0
 33 34  1  0
 34 35  2  0
 29 36  1  0
 36 37  2  0
 36 38  2  0
 14  4  1  0
 23 15  2  0
 36 24  1  0
 11  6  1  0
 22 18  1  0
 35 30  1  0
 26 21  1  0
  1 39  1  0
  1 40  1  0
  2 41  1  0
  3 42  1  0
  3 43  1  0
  7 44  1  0
  8 45  1  0
  9 46  1  0
 11 47  1  0
 16 48  1  0
 17 49  1  0
 25 50  1  0
 25 51  1  0
 26 52  1  0
 26 53  1  0
 27 54  1  0
 27 55  1  0
 28 56  1  0
 28 57  1  0
 29 58  1  0
 31 59  1  0
 32 60  1  0
 33 61  1  0
 34 62  1  0
 35 63  1  0
M  END
>  <Energy>  (1130) 
149.254516403553

>  <compound_id>  (1130) 
4537

>  <target_id>  (1130) 
1

>  <reference_id>  (1130) 
161

>  <inspiration_ids>  (1130) 
[161, 107]

>  <energy_score>  (1130) 
-47.26654415289096

>  <distance_score>  (1130) 
4.40277935460874

>  <path>  (1130) 
/opt/xchem-fragalysis-2/maxwin/BulkDock/SCRATCH/505735/C4537-P161/C4537-P161.minimised.mol

>  <scratch_subdir>  (1130) 
/opt/xchem-fragalysis-2/maxwin/BulkDock/SCRATCH/505735/C4537-P161

>  <fragmenstein_runtime>  (1130) 
8.469358682632446

>  <fragmenstein_outcome>  (1130) 
too moved

>  <fragmenstein_mode>  (1130) 
expansion

>  <fragmenstein_error>  (1130) 


$$$$
C4537-P107
     RDKit          3D

 63 69  0  0  0  0  0  0  0  0999 V2000
  -10.3660  -24.6610   32.9326 C   0  0  0  0  0  0  0  0  0  0  0  0
  -11.5511  -24.2611   33.4145 C   0  0  0  0  0  0  0  0  0  0  0  0
  -12.0952  -22.8690   33.3528 C   0  0  0  0  0  0  0  0  0  0  0  0
  -13.3568  -22.7355   32.6413 N   0  0  0  0  0  0  0  0  0  0  0  0
  -13.4160  -22.6610   31.2693 C   0  0  0  0  0  0  0  0  0  0  0  0
  -12.5392  -23.3512   30.3392 C   0  0  0  0  0  0  0  0  0  0  0  0
  -11.9884  -22.6797   29.2629 C   0  0  0  0  0  0  0  0  0  0  0  0
  -11.1644  -23.3727   28.4034 C   0  0  0  0  0  0  0  0  0  0  0  0
  -10.8634  -24.6975   28.6664 C   0  0  0  0  0  0  0  0  0  0  0  0
  -11.3721  -25.3834   29.6924 N   0  0  0  0  0  0  0  0  0  0  0  0
  -12.2178  -24.6966   30.4823 C   0  0  0  0  0  0  0  0  0  0  0  0
  -14.3399  -21.7685   30.9795 N   0  0  0  0  0  0  0  0  0  0  0  0
  -14.9594  -21.3546   32.1265 N   0  0  0  0  0  0  0  0  0  0  0  0
  -14.5199  -22.1308   33.0979 C   0  0  0  0  0  0  0  0  0  0  0  0
  -15.2930  -22.6812   34.1654 C   0  0  0  0  0  0  0  0  0  0  0  0
  -15.1320  -24.0958   34.5383 C   0  0  0  0  0  0  0  0  0  0  0  0
  -16.1301  -24.8730   34.9839 C   0  0  0  0  0  0  0  0  0  0  0  0
  -17.4143  -24.3310   34.9829 C   0  0  0  0  0  0  0  0  0  0  0  0
  -18.6147  -24.8518   35.0897 N   0  0  0  0  0  0  0  0  0  0  0  0
  -19.5117  -23.8671   34.7521 N   0  0  0  0  0  0  0  0  0  0  0  0
  -18.8307  -22.7751   34.4885 C   0  0  0  0  0  0  0  0  0  0  0  0
  -17.5037  -22.9821   34.7691 N   0  0  0  0  0  0  0  0  0  0  0  0
  -16.4525  -22.0773   34.5634 C   0  0  0  0  0  0  0  0  0  0  0  0
  -16.9660  -20.6370   34.5925 C   0  0  0  0  0  0  0  0  0  0  0  0
  -18.1498  -20.5154   33.6044 C   0  0  0  0  0  0  0  0  0  0  0  0
  -19.2905  -21.5294   33.8347 C   0  0  0  0  0  0  0  0  0  0  0  0
  -15.9353  -19.4983   34.3978 C   0  0  0  0  0  0  0  0  0  0  0  0
  -15.9496  -18.4895   35.5563 C   0  0  0  0  0  0  0  0  0  0  0  0
  -17.2881  -18.5544   36.2641 C   0  0  0  0  0  0  0  0  0  0  0  0
  -17.3499  -17.8975   37.6229 C   0  0  0  0  0  0  0  0  0  0  0  0
  -16.4390  -18.1837   38.6527 C   0  0  0  0  0  0  0  0  0  0  0  0
  -16.5278  -17.5416   39.8902 C   0  0  0  0  0  0  0  0  0  0  0  0
  -17.5231  -16.5959   40.1172 C   0  0  0  0  0  0  0  0  0  0  0  0
  -18.4313  -16.2931   39.1072 C   0  0  0  0  0  0  0  0  0  0  0  0
  -18.3454  -16.9378   37.8712 C   0  0  0  0  0  0  0  0  0  0  0  0
  -17.6250  -20.2879   36.3387 S   0  0  0  0  0  0  0  0  0  0  0  0
  -19.0624  -20.4380   36.4209 O   0  0  0  0  0  0  0  0  0  0  0  0
  -16.7517  -20.9166   37.3062 O   0  0  0  0  0  0  0  0  0  0  0  0
  -10.0576  -25.6981   33.0080 H   0  0  0  0  0  0  0  0  0  0  0  0
   -9.6854  -23.9865   32.4289 H   0  0  0  0  0  0  0  0  0  0  0  0
  -12.1668  -24.9959   33.9128 H   0  0  0  0  0  0  0  0  0  0  0  0
  -11.3932  -22.2011   32.8398 H   0  0  0  0  0  0  0  0  0  0  0  0
  -12.2307  -22.4730   34.3509 H   0  0  0  0  0  0  0  0  0  0  0  0
  -12.1801  -21.6263   29.0910 H   0  0  0  0  0  0  0  0  0  0  0  0
  -10.7683  -22.8865   27.5270 H   0  0  0  0  0  0  0  0  0  0  0  0
  -10.1992  -25.2589   28.0156 H   0  0  0  0  0  0  0  0  0  0  0  0
  -12.6293  -25.2892   31.2884 H   0  0  0  0  0  0  0  0  0  0  0  0
  -14.1381  -24.5085   34.5091 H   0  0  0  0  0  0  0  0  0  0  0  0
  -15.9844  -25.8990   35.2980 H   0  0  0  0  0  0  0  0  0  0  0  0
  -18.5765  -19.5047   33.6212 H   0  0  0  0  0  0  0  0  0  0  0  0
  -17.7679  -20.6586   32.5834 H   0  0  0  0  0  0  0  0  0  0  0  0
  -19.7314  -21.7799   32.8615 H   0  0  0  0  0  0  0  0  0  0  0  0
  -20.1061  -21.0787   34.4082 H   0  0  0  0  0  0  0  0  0  0  0  0
  -16.1390  -18.9911   33.4543 H   0  0  0  0  0  0  0  0  0  0  0  0
  -14.9091  -19.8665   34.3177 H   0  0  0  0  0  0  0  0  0  0  0  0
  -15.1299  -18.7479   36.2382 H   0  0  0  0  0  0  0  0  0  0  0  0
  -15.7314  -17.4771   35.2012 H   0  0  0  0  0  0  0  0  0  0  0  0
  -18.0552  -18.1258   35.6069 H   0  0  0  0  0  0  0  0  0  0  0  0
  -15.6541  -18.9256   38.5189 H   0  0  0  0  0  0  0  0  0  0  0  0
  -15.8201  -17.7873   40.6781 H   0  0  0  0  0  0  0  0  0  0  0  0
  -17.5918  -16.0977   41.0802 H   0  0  0  0  0  0  0  0  0  0  0  0
  -19.2087  -15.5533   39.2785 H   0  0  0  0  0  0  0  0  0  0  0  0
  -19.0651  -16.6737   37.0976 H   0  0  0  0  0  0  0  0  0  0  0  0
  1  2  2  0
  2  3  1  0
  3  4  1  0
  4  5  1  0
  5  6  1  0
  6  7  2  0
  7  8  1  0
  8  9  2  0
  9 10  1  0
 10 11  2  0
  5 12  2  0
 12 13  1  0
 13 14  2  0
 14 15  1  0
 15 16  1  0
 16 17  2  0
 17 18  1  0
 18 19  2  0
 19 20  1  0
 20 21  2  0
 21 22  1  0
 22 23  1  0
 23 24  1  0
 24 25  1  0
 25 26  1  0
 24 27  1  0
 27 28  1  0
 28 29  1  0
 29 30  1  0
 30 31  2  0
 31 32  1  0
 32 33  2  0
 33 34  1  0
 34 35  2  0
 29 36  1  0
 36 37  2  0
 36 38  2  0
 14  4  1  0
 23 15  2  0
 36 24  1  0
 11  6  1  0
 22 18  1  0
 35 30  1  0
 26 21  1  0
  1 39  1  0
  1 40  1  0
  2 41  1  0
  3 42  1  0
  3 43  1  0
  7 44  1  0
  8 45  1  0
  9 46  1  0
 11 47  1  0
 16 48  1  0
 17 49  1  0
 25 50  1  0
 25 51  1  0
 26 52  1  0
 26 53  1  0
 27 54  1  0
 27 55  1  0
 28 56  1  0
 28 57  1  0
 29 58  1  0
 31 59  1  0
 32 60  1  0
 33 61  1  0
 34 62  1  0
 35 63  1  0
M  END
>  <Energy>  (1131) 
178.89372312211148

>  <compound_id>  (1131) 
4537

>  <target_id>  (1131) 
1

>  <reference_id>  (1131) 
107

>  <inspiration_ids>  (1131) 
[161, 107]

>  <energy_score>  (1131) 
-14.548897439873798

>  <distance_score>  (1131) 
3.9865814804683866

>  <path>  (1131) 
/opt/xchem-fragalysis-2/maxwin/BulkDock/SCRATCH/505735/C4537-P107/C4537-P107.minimised.mol

>  <scratch_subdir>  (1131) 
/opt/xchem-fragalysis-2/maxwin/BulkDock/SCRATCH/505735/C4537-P107

>  <fragmenstein_runtime>  (1131) 
5.5143797397613525

>  <fragmenstein_outcome>  (1131) 
too moved

>  <fragmenstein_mode>  (1131) 
expansion

>  <fragmenstein_error>  (1131) 


$$$$
C4537-P161
     RDKit          3D

 63 69  0  0  0  0  0  0  0  0999 V2000
  -13.3470  -24.0149   28.7939 C   0  0  0  0  0  0  0  0  0  0  0  0
  -14.3248  -24.8512   29.1731 C   0  0  0  0  0  0  0  0  0  0  0  0
  -15.0516  -24.9911   30.4933 C   0  0  0  0  0  0  0  0  0  0  0  0
  -15.0205  -23.8663   31.4752 N   0  0  0  0  0  0  0  0  0  0  0  0
  -13.7462  -23.3591   31.8496 C   0  0  0  0  0  0  0  0  0  0  0  0
  -13.3659  -22.0643   32.4290 C   0  0  0  0  0  0  0  0  0  0  0  0
  -12.0254  -21.8042   32.6977 C   0  0  0  0  0  0  0  0  0  0  0  0
  -11.6624  -20.9039   33.7034 C   0  0  0  0  0  0  0  0  0  0  0  0
  -12.6574  -20.2265   34.3741 C   0  0  0  0  0  0  0  0  0  0  0  0
  -13.9675  -20.3709   34.0844 N   0  0  0  0  0  0  0  0  0  0  0  0
  -14.2746  -21.2911   33.1278 C   0  0  0  0  0  0  0  0  0  0  0  0
  -13.3327  -24.4130   32.5192 N   0  0  0  0  0  0  0  0  0  0  0  0
  -14.3810  -24.5956   33.3910 N   0  0  0  0  0  0  0  0  0  0  0  0
  -15.4854  -24.2069   32.7708 C   0  0  0  0  0  0  0  0  0  0  0  0
  -16.8416  -24.4826   33.2131 C   0  0  0  0  0  0  0  0  0  0  0  0
  -17.0667  -25.9599   33.3653 C   0  0  0  0  0  0  0  0  0  0  0  0
  -16.9678  -26.5807   34.5604 C   0  0  0  0  0  0  0  0  0  0  0  0
  -16.7588  -25.7934   35.7182 C   0  0  0  0  0  0  0  0  0  0  0  0
  -16.5354  -26.0464   36.9909 N   0  0  0  0  0  0  0  0  0  0  0  0
  -16.4660  -24.8342   37.6598 N   0  0  0  0  0  0  0  0  0  0  0  0
  -16.6680  -23.8785   36.7792 C   0  0  0  0  0  0  0  0  0  0  0  0
  -16.9046  -24.4399   35.5505 N   0  0  0  0  0  0  0  0  0  0  0  0
  -17.1962  -23.7805   34.3409 C   0  0  0  0  0  0  0  0  0  0  0  0
  -17.6945  -22.3457   34.6105 C   0  0  0  0  0  0  0  0  0  0  0  0
  -16.7180  -21.6652   35.5966 C   0  0  0  0  0  0  0  0  0  0  0  0
  -16.6509  -22.3992   36.9560 C   0  0  0  0  0  0  0  0  0  0  0  0
  -19.1057  -22.3490   35.3003 C   0  0  0  0  0  0  0  0  0  0  0  0
  -20.1448  -22.6456   34.2392 C   0  0  0  0  0  0  0  0  0  0  0  0
  -19.8575  -21.6902   33.0826 C   0  0  0  0  0  0  0  0  0  0  0  0
  -20.4040  -22.2218   31.7722 C   0  0  0  0  0  0  0  0  0  0  0  0
  -21.3971  -21.4905   31.1033 C   0  0  0  0  0  0  0  0  0  0  0  0
  -22.0197  -21.9963   29.9591 C   0  0  0  0  0  0  0  0  0  0  0  0
  -21.6784  -23.2563   29.4771 C   0  0  0  0  0  0  0  0  0  0  0  0
  -20.7068  -24.0049   30.1336 C   0  0  0  0  0  0  0  0  0  0  0  0
  -20.0639  -23.4851   31.2600 C   0  0  0  0  0  0  0  0  0  0  0  0
  -18.0736  -21.4058   33.0942 S   0  0  0  0  0  0  0  0  0  0  0  0
  -17.4526  -21.9980   31.9308 O   0  0  0  0  0  0  0  0  0  0  0  0
  -17.8455  -20.0027   33.3771 O   0  0  0  0  0  0  0  0  0  0  0  0
  -12.9104  -23.2638   29.4395 H   0  0  0  0  0  0  0  0  0  0  0  0
  -12.9288  -24.0806   27.7920 H   0  0  0  0  0  0  0  0  0  0  0  0
  -14.6532  -25.5812   28.4337 H   0  0  0  0  0  0  0  0  0  0  0  0
  -16.1111  -25.2035   30.3140 H   0  0  0  0  0  0  0  0  0  0  0  0
  -14.6565  -25.8846   30.9951 H   0  0  0  0  0  0  0  0  0  0  0  0
  -11.2526  -22.4265   32.2594 H   0  0  0  0  0  0  0  0  0  0  0  0
  -10.6235  -20.7710   33.9798 H   0  0  0  0  0  0  0  0  0  0  0  0
  -12.4203  -19.5146   35.1579 H   0  0  0  0  0  0  0  0  0  0  0  0
  -15.3304  -21.4107   32.9618 H   0  0  0  0  0  0  0  0  0  0  0  0
  -17.1944  -26.5342   32.4530 H   0  0  0  0  0  0  0  0  0  0  0  0
  -17.0276  -27.6572   34.6600 H   0  0  0  0  0  0  0  0  0  0  0  0
  -16.9705  -20.6124   35.7654 H   0  0  0  0  0  0  0  0  0  0  0  0
  -15.7133  -21.6848   35.1836 H   0  0  0  0  0  0  0  0  0  0  0  0
  -15.7414  -22.0987   37.4881 H   0  0  0  0  0  0  0  0  0  0  0  0
  -17.5000  -22.1048   37.5832 H   0  0  0  0  0  0  0  0  0  0  0  0
  -19.2002  -23.0789   36.1105 H   0  0  0  0  0  0  0  0  0  0  0  0
  -19.3152  -21.3616   35.7347 H   0  0  0  0  0  0  0  0  0  0  0  0
  -21.1610  -22.4991   34.6223 H   0  0  0  0  0  0  0  0  0  0  0  0
  -20.0702  -23.6996   33.9493 H   0  0  0  0  0  0  0  0  0  0  0  0
  -20.3014  -20.7132   33.3142 H   0  0  0  0  0  0  0  0  0  0  0  0
  -21.7075  -20.5173   31.4806 H   0  0  0  0  0  0  0  0  0  0  0  0
  -22.7882  -21.4132   29.4581 H   0  0  0  0  0  0  0  0  0  0  0  0
  -22.1813  -23.6584   28.6010 H   0  0  0  0  0  0  0  0  0  0  0  0
  -20.4533  -25.0010   29.7779 H   0  0  0  0  0  0  0  0  0  0  0  0
  -19.3083  -24.0977   31.7449 H   0  0  0  0  0  0  0  0  0  0  0  0
  1  2  2  0
  2  3  1  0
  3  4  1  0
  4  5  1  0
  5  6  1  0
  6  7  2  0
  7  8  1  0
  8  9  2  0
  9 10  1  0
 10 11  2  0
  5 12  2  0
 12 13  1  0
 13 14  2  0
 14 15  1  0
 15 16  1  0
 16 17  2  0
 17 18  1  0
 18 19  2  0
 19 20  1  0
 20 21  2  0
 21 22  1  0
 22 23  1  0
 23 24  1  0
 24 25  1  0
 25 26  1  0
 24 27  1  0
 27 28  1  0
 28 29  1  0
 29 30  1  0
 30 31  2  0
 31 32  1  0
 32 33  2  0
 33 34  1  0
 34 35  2  0
 29 36  1  0
 36 37  2  0
 36 38  2  0
 14  4  1  0
 23 15  2  0
 36 24  1  0
 11  6  1  0
 22 18  1  0
 35 30  1  0
 26 21  1  0
  1 39  1  0
  1 40  1  0
  2 41  1  0
  3 42  1  0
  3 43  1  0
  7 44  1  0
  8 45  1  0
  9 46  1  0
 11 47  1  0
 16 48  1  0
 17 49  1  0
 25 50  1  0
 25 51  1  0
 26 52  1  0
 26 53  1  0
 27 54  1  0
 27 55  1  0
 28 56  1  0
 28 57  1  0
 29 58  1  0
 31 59  1  0
 32 60  1  0
 33 61  1  0
 34 62  1  0
 35 63  1  0
M  END
>  <Energy>  (1132) 
260.54179429731357

>  <compound_id>  (1132) 
4537

>  <target_id>  (1132) 
1

>  <reference_id>  (1132) 
161

>  <inspiration_ids>  (1132) 
[161, 119]

>  <energy_score>  (1132) 
64.0207337408703

>  <distance_score>  (1132) 
4.391465810889272

>  <path>  (1132) 
/opt/xchem-fragalysis-2/maxwin/BulkDock/SCRATCH/505735/C4537-P161/C4537-P161.minimised.mol

>  <scratch_subdir>  (1132) 
/opt/xchem-fragalysis-2/maxwin/BulkDock/SCRATCH/505735/C4537-P161

>  <fragmenstein_runtime>  (1132) 
9.684735536575317

>  <fragmenstein_outcome>  (1132) 
too moved

>  <fragmenstein_mode>  (1132) 
expansion

>  <fragmenstein_error>  (1132) 


$$$$
C4537-P119
     RDKit          3D

 63 69  0  0  0  0  0  0  0  0999 V2000
  -12.6793  -18.1622   34.1672 C   0  0  0  0  0  0  0  0  0  0  0  0
  -12.0902  -19.2804   33.7243 C   0  0  0  0  0  0  0  0  0  0  0  0
  -12.5291  -20.7044   33.9844 C   0  0  0  0  0  0  0  0  0  0  0  0
  -12.8984  -21.3457   32.7417 N   0  0  0  0  0  0  0  0  0  0  0  0
  -12.0408  -21.6647   31.6952 C   0  0  0  0  0  0  0  0  0  0  0  0
  -10.7643  -22.3122   31.8000 C   0  0  0  0  0  0  0  0  0  0  0  0
  -10.4624  -23.4181   31.0094 C   0  0  0  0  0  0  0  0  0  0  0  0
   -9.2904  -24.1019   31.2486 C   0  0  0  0  0  0  0  0  0  0  0  0
   -8.4628  -23.6236   32.2488 C   0  0  0  0  0  0  0  0  0  0  0  0
   -8.6889  -22.5341   32.9975 N   0  0  0  0  0  0  0  0  0  0  0  0
   -9.8323  -21.9006   32.7297 C   0  0  0  0  0  0  0  0  0  0  0  0
  -12.6449  -21.3659   30.5778 N   0  0  0  0  0  0  0  0  0  0  0  0
  -13.9402  -21.0947   30.9304 N   0  0  0  0  0  0  0  0  0  0  0  0
  -14.1711  -21.3000   32.2186 C   0  0  0  0  0  0  0  0  0  0  0  0
  -15.3741  -21.7716   32.9624 C   0  0  0  0  0  0  0  0  0  0  0  0
  -15.9165  -23.1200   32.6465 C   0  0  0  0  0  0  0  0  0  0  0  0
  -16.0530  -24.1084   33.5428 C   0  0  0  0  0  0  0  0  0  0  0  0
  -15.8978  -23.7766   34.8915 C   0  0  0  0  0  0  0  0  0  0  0  0
  -16.0121  -24.4647   36.0016 N   0  0  0  0  0  0  0  0  0  0  0  0
  -16.3093  -23.5646   36.9949 N   0  0  0  0  0  0  0  0  0  0  0  0
  -16.3302  -22.3619   36.4628 C   0  0  0  0  0  0  0  0  0  0  0  0
  -15.9145  -22.4301   35.1618 N   0  0  0  0  0  0  0  0  0  0  0  0
  -15.7487  -21.3860   34.2204 C   0  0  0  0  0  0  0  0  0  0  0  0
  -16.6920  -20.2226   34.5829 C   0  0  0  0  0  0  0  0  0  0  0  0
  -16.6026  -19.9091   36.0998 C   0  0  0  0  0  0  0  0  0  0  0  0
  -16.8174  -21.1005   37.0422 C   0  0  0  0  0  0  0  0  0  0  0  0
  -16.5896  -18.9283   33.7594 C   0  0  0  0  0  0  0  0  0  0  0  0
  -17.9704  -18.2596   33.8025 C   0  0  0  0  0  0  0  0  0  0  0  0
  -18.9703  -19.3133   33.3310 C   0  0  0  0  0  0  0  0  0  0  0  0
  -20.4495  -19.0213   33.4594 C   0  0  0  0  0  0  0  0  0  0  0  0
  -21.3832  -19.9521   32.9664 C   0  0  0  0  0  0  0  0  0  0  0  0
  -22.7556  -19.7037   33.0332 C   0  0  0  0  0  0  0  0  0  0  0  0
  -23.2214  -18.5140   33.5829 C   0  0  0  0  0  0  0  0  0  0  0  0
  -22.3146  -17.5736   34.0633 C   0  0  0  0  0  0  0  0  0  0  0  0
  -20.9403  -17.8223   33.9991 C   0  0  0  0  0  0  0  0  0  0  0  0
  -18.4932  -20.7799   34.2154 S   0  0  0  0  0  0  0  0  0  0  0  0
  -19.2513  -20.8353   35.4494 O   0  0  0  0  0  0  0  0  0  0  0  0
  -18.5440  -21.8827   33.2762 O   0  0  0  0  0  0  0  0  0  0  0  0
  -12.2272  -17.1904   33.9761 H   0  0  0  0  0  0  0  0  0  0  0  0
  -13.6016  -18.1713   34.7272 H   0  0  0  0  0  0  0  0  0  0  0  0
  -11.1940  -19.1525   33.1237 H   0  0  0  0  0  0  0  0  0  0  0  0
  -11.7450  -21.2913   34.4631 H   0  0  0  0  0  0  0  0  0  0  0  0
  -13.3817  -20.7290   34.6613 H   0  0  0  0  0  0  0  0  0  0  0  0
  -11.1643  -23.7652   30.2563 H   0  0  0  0  0  0  0  0  0  0  0  0
   -9.0322  -24.9889   30.6881 H   0  0  0  0  0  0  0  0  0  0  0  0
   -7.5368  -24.1226   32.4831 H   0  0  0  0  0  0  0  0  0  0  0  0
   -9.9605  -21.0045   33.3123 H   0  0  0  0  0  0  0  0  0  0  0  0
  -16.1896  -23.3191   31.6200 H   0  0  0  0  0  0  0  0  0  0  0  0
  -16.3960  -25.0961   33.2627 H   0  0  0  0  0  0  0  0  0  0  0  0
  -17.3012  -19.1186   36.3962 H   0  0  0  0  0  0  0  0  0  0  0  0
  -15.6075  -19.5009   36.2895 H   0  0  0  0  0  0  0  0  0  0  0  0
  -16.3087  -20.8928   37.9832 H   0  0  0  0  0  0  0  0  0  0  0  0
  -17.8715  -21.2095   37.3114 H   0  0  0  0  0  0  0  0  0  0  0  0
  -15.8244  -18.2526   34.1511 H   0  0  0  0  0  0  0  0  0  0  0  0
  -16.3315  -19.1382   32.7144 H   0  0  0  0  0  0  0  0  0  0  0  0
  -18.0088  -17.3969   33.1373 H   0  0  0  0  0  0  0  0  0  0  0  0
  -18.1906  -17.9025   34.8138 H   0  0  0  0  0  0  0  0  0  0  0  0
  -18.7629  -19.5186   32.2720 H   0  0  0  0  0  0  0  0  0  0  0  0
  -21.0475  -20.8929   32.5311 H   0  0  0  0  0  0  0  0  0  0  0  0
  -23.4589  -20.4464   32.6654 H   0  0  0  0  0  0  0  0  0  0  0  0
  -24.2894  -18.3233   33.6456 H   0  0  0  0  0  0  0  0  0  0  0  0
  -22.6759  -16.6443   34.4967 H   0  0  0  0  0  0  0  0  0  0  0  0
  -20.2704  -17.0554   34.3797 H   0  0  0  0  0  0  0  0  0  0  0  0
  1  2  2  0
  2  3  1  0
  3  4  1  0
  4  5  1  0
  5  6  1  0
  6  7  2  0
  7  8  1  0
  8  9  2  0
  9 10  1  0
 10 11  2  0
  5 12  2  0
 12 13  1  0
 13 14  2  0
 14 15  1  0
 15 16  1  0
 16 17  2  0
 17 18  1  0
 18 19  2  0
 19 20  1  0
 20 21  2  0
 21 22  1  0
 22 23  1  0
 23 24  1  0
 24 25  1  0
 25 26  1  0
 24 27  1  0
 27 28  1  0
 28 29  1  0
 29 30  1  0
 30 31  2  0
 31 32  1  0
 32 33  2  0
 33 34  1  0
 34 35  2  0
 29 36  1  0
 36 37  2  0
 36 38  2  0
 14  4  1  0
 23 15  2  0
 36 24  1  0
 11  6  1  0
 22 18  1  0
 35 30  1  0
 26 21  1  0
  1 39  1  0
  1 40  1  0
  2 41  1  0
  3 42  1  0
  3 43  1  0
  7 44  1  0
  8 45  1  0
  9 46  1  0
 11 47  1  0
 16 48  1  0
 17 49  1  0
 25 50  1  0
 25 51  1  0
 26 52  1  0
 26 53  1  0
 27 54  1  0
 27 55  1  0
 28 56  1  0
 28 57  1  0
 29 58  1  0
 31 59  1  0
 32 60  1  0
 33 61  1  0
 34 62  1  0
 35 63  1  0
M  END
>  <Energy>  (1133) 
211.30491865227998

>  <compound_id>  (1133) 
4537

>  <target_id>  (1133) 
1

>  <reference_id>  (1133) 
119

>  <inspiration_ids>  (1133) 
[161, 119]

>  <energy_score>  (1133) 
17.86229809029078

>  <distance_score>  (1133) 
2.9945226021954405

>  <path>  (1133) 
/opt/xchem-fragalysis-2/maxwin/BulkDock/SCRATCH/505735/C4537-P119/C4537-P119.minimised.mol

>  <scratch_subdir>  (1133) 
/opt/xchem-fragalysis-2/maxwin/BulkDock/SCRATCH/505735/C4537-P119

>  <fragmenstein_runtime>  (1133) 
7.322164535522461

>  <fragmenstein_outcome>  (1133) 
too moved

>  <fragmenstein_mode>  (1133) 
expansion

>  <fragmenstein_error>  (1133) 


$$$$
C4539-P161
     RDKit          3D

 51 56  0  0  0  0  0  0  0  0999 V2000
  -18.3871  -28.7828   35.3055 C   0  0  0  0  0  0  0  0  0  0  0  0
  -17.7316  -28.0631   36.2284 C   0  0  0  0  0  0  0  0  0  0  0  0
  -17.0005  -26.7541   36.0259 C   0  0  0  0  0  0  0  0  0  0  0  0
  -17.5694  -25.8943   34.9984 N   0  0  0  0  0  0  0  0  0  0  0  0
  -16.9677  -25.2158   33.9652 C   0  0  0  0  0  0  0  0  0  0  0  0
  -15.4954  -24.3919   34.1585 S   0  0  0  0  0  0  0  0  0  0  0  0
  -15.0036  -23.7590   32.6063 C   0  0  0  0  0  0  0  0  0  0  0  0
  -14.5739  -22.4709   32.5532 C   0  0  0  0  0  0  0  0  0  0  0  0
  -15.1546  -21.1492   33.5410 S   0  0  0  0  0  0  0  0  0  0  0  0
  -16.8756  -21.4170   33.4064 C   0  0  0  0  0  0  0  0  0  0  0  0
  -17.5064  -21.8001   32.3160 N   0  0  0  0  0  0  0  0  0  0  0  0
  -18.8196  -22.0059   32.6774 N   0  0  0  0  0  0  0  0  0  0  0  0
  -18.9152  -21.6920   33.9549 C   0  0  0  0  0  0  0  0  0  0  0  0
  -20.1298  -21.7808   34.6882 C   0  0  0  0  0  0  0  0  0  0  0  0
  -20.4627  -21.3248   35.9465 C   0  0  0  0  0  0  0  0  0  0  0  0
  -21.8245  -21.6507   36.1699 C   0  0  0  0  0  0  0  0  0  0  0  0
  -22.2820  -22.3031   35.0463 C   0  0  0  0  0  0  0  0  0  0  0  0
  -21.2401  -22.3922   34.1601 N   0  0  0  0  0  0  0  0  0  0  0  0
  -17.7189  -21.2787   34.4773 O   0  0  0  0  0  0  0  0  0  0  0  0
  -13.4307  -22.1949   31.6751 C   0  0  0  0  0  0  0  0  0  0  0  0
  -13.1404  -22.9525   30.6118 C   0  0  0  0  0  0  0  0  0  0  0  0
  -13.9146  -24.1096   30.4099 C   0  0  0  0  0  0  0  0  0  0  0  0
  -13.9734  -24.9393   29.3982 N   0  0  0  0  0  0  0  0  0  0  0  0
  -14.7442  -25.9967   29.7939 N   0  0  0  0  0  0  0  0  0  0  0  0
  -15.1553  -25.7727   31.0285 C   0  0  0  0  0  0  0  0  0  0  0  0
  -14.7184  -24.5502   31.4677 N   0  0  0  0  0  0  0  0  0  0  0  0
  -17.8479  -25.0223   33.0209 N   0  0  0  0  0  0  0  0  0  0  0  0
  -19.0765  -25.3045   33.5620 N   0  0  0  0  0  0  0  0  0  0  0  0
  -18.8972  -25.5924   34.8369 C   0  0  0  0  0  0  0  0  0  0  0  0
  -19.8956  -25.5009   35.8777 C   0  0  0  0  0  0  0  0  0  0  0  0
  -21.2070  -25.8899   35.6313 C   0  0  0  0  0  0  0  0  0  0  0  0
  -22.1744  -25.6763   36.6057 C   0  0  0  0  0  0  0  0  0  0  0  0
  -21.7955  -25.0886   37.8022 C   0  0  0  0  0  0  0  0  0  0  0  0
  -20.5351  -24.6933   38.0754 N   0  0  0  0  0  0  0  0  0  0  0  0
  -19.6217  -24.8899   37.0993 C   0  0  0  0  0  0  0  0  0  0  0  0
  -18.8644  -29.7212   35.5723 H   0  0  0  0  0  0  0  0  0  0  0  0
  -18.4544  -28.4737   34.2658 H   0  0  0  0  0  0  0  0  0  0  0  0
  -17.6845  -28.4602   37.2406 H   0  0  0  0  0  0  0  0  0  0  0  0
  -15.9545  -26.9325   35.7715 H   0  0  0  0  0  0  0  0  0  0  0  0
  -17.0145  -26.1760   36.9556 H   0  0  0  0  0  0  0  0  0  0  0  0
  -19.8030  -20.8001   36.6260 H   0  0  0  0  0  0  0  0  0  0  0  0
  -22.4035  -21.4344   37.0581 H   0  0  0  0  0  0  0  0  0  0  0  0
  -23.2490  -22.7225   34.8055 H   0  0  0  0  0  0  0  0  0  0  0  0
  -21.2580  -22.8424   33.2522 H   0  0  0  0  0  0  0  0  0  0  0  0
  -12.7247  -21.4296   31.9809 H   0  0  0  0  0  0  0  0  0  0  0  0
  -12.2861  -22.7627   29.9738 H   0  0  0  0  0  0  0  0  0  0  0  0
  -15.7874  -26.4238   31.6112 H   0  0  0  0  0  0  0  0  0  0  0  0
  -21.4832  -26.3317   34.6771 H   0  0  0  0  0  0  0  0  0  0  0  0
  -23.2071  -25.9597   36.4351 H   0  0  0  0  0  0  0  0  0  0  0  0
  -22.5206  -24.9057   38.5898 H   0  0  0  0  0  0  0  0  0  0  0  0
  -18.6398  -24.4874   37.3294 H   0  0  0  0  0  0  0  0  0  0  0  0
  1  2  2  0
  2  3  1  0
  3  4  1  0
  4  5  1  0
  5  6  1  0
  6  7  1  0
  7  8  2  0
  8  9  1  0
  9 10  1  0
 10 11  2  0
 11 12  1  0
 12 13  2  0
 13 14  1  0
 14 15  2  0
 15 16  1  0
 16 17  2  0
 17 18  1  0
 13 19  1  0
  8 20  1  0
 20 21  2  0
 21 22  1  0
 22 23  2  0
 23 24  1  0
 24 25  2  0
 25 26  1  0
  5 27  2  0
 27 28  1  0
 28 29  2  0
 29 30  1  0
 30 31  2  0
 31 32  1  0
 32 33  2  0
 33 34  1  0
 34 35  2  0
 29  4  1  0
 35 30  1  0
 26  7  1  0
 19 10  1  0
 26 22  1  0
 18 14  1  0
  1 36  1  0
  1 37  1  0
  2 38  1  0
  3 39  1  0
  3 40  1  0
 15 41  1  0
 16 42  1  0
 17 43  1  0
 18 44  1  0
 20 45  1  0
 21 46  1  0
 25 47  1  0
 31 48  1  0
 32 49  1  0
 33 50  1  0
 35 51  1  0
M  END
>  <Energy>  (1134) 
100.61117187469299

>  <compound_id>  (1134) 
4539

>  <target_id>  (1134) 
1

>  <reference_id>  (1134) 
161

>  <inspiration_ids>  (1134) 
[161, 173]

>  <energy_score>  (1134) 
-35.46036810155496

>  <distance_score>  (1134) 
1.750283928120528

>  <path>  (1134) 
/opt/xchem-fragalysis-2/maxwin/BulkDock/SCRATCH/505735/C4539-P161/C4539-P161.minimised.mol

>  <scratch_subdir>  (1134) 
/opt/xchem-fragalysis-2/maxwin/BulkDock/SCRATCH/505735/C4539-P161

>  <fragmenstein_runtime>  (1134) 
13.783493757247925

>  <fragmenstein_outcome>  (1134) 
too moved

>  <fragmenstein_mode>  (1134) 
expansion

>  <fragmenstein_error>  (1134) 


$$$$
C4539-P173
     RDKit          3D

 51 56  0  0  0  0  0  0  0  0999 V2000
  -18.3715  -28.8521   35.2216 C   0  0  0  0  0  0  0  0  0  0  0  0
  -17.6398  -28.1995   36.1369 C   0  0  0  0  0  0  0  0  0  0  0  0
  -16.9141  -26.8831   35.9793 C   0  0  0  0  0  0  0  0  0  0  0  0
  -17.4935  -25.9766   34.9965 N   0  0  0  0  0  0  0  0  0  0  0  0
  -16.9022  -25.2749   33.9715 C   0  0  0  0  0  0  0  0  0  0  0  0
  -15.4210  -24.4674   34.1615 S   0  0  0  0  0  0  0  0  0  0  0  0
  -14.9500  -23.8025   32.6168 C   0  0  0  0  0  0  0  0  0  0  0  0
  -14.5321  -22.5105   32.5808 C   0  0  0  0  0  0  0  0  0  0  0  0
  -15.1132  -21.2188   33.6066 S   0  0  0  0  0  0  0  0  0  0  0  0
  -16.8346  -21.4745   33.4563 C   0  0  0  0  0  0  0  0  0  0  0  0
  -17.4674  -21.7919   32.3459 N   0  0  0  0  0  0  0  0  0  0  0  0
  -18.7858  -21.9942   32.6935 N   0  0  0  0  0  0  0  0  0  0  0  0
  -18.8804  -21.7466   33.9860 C   0  0  0  0  0  0  0  0  0  0  0  0
  -20.0981  -21.8497   34.7122 C   0  0  0  0  0  0  0  0  0  0  0  0
  -20.4261  -21.4451   35.9894 C   0  0  0  0  0  0  0  0  0  0  0  0
  -21.7945  -21.7543   36.1951 C   0  0  0  0  0  0  0  0  0  0  0  0
  -22.2601  -22.3499   35.0438 C   0  0  0  0  0  0  0  0  0  0  0  0
  -21.2172  -22.4199   34.1570 N   0  0  0  0  0  0  0  0  0  0  0  0
  -17.6799  -21.3752   34.5297 O   0  0  0  0  0  0  0  0  0  0  0  0
  -13.4017  -22.2068   31.6920 C   0  0  0  0  0  0  0  0  0  0  0  0
  -13.1140  -22.9476   30.6162 C   0  0  0  0  0  0  0  0  0  0  0  0
  -13.8775  -24.1115   30.4073 C   0  0  0  0  0  0  0  0  0  0  0  0
  -13.9383  -24.9288   29.3857 N   0  0  0  0  0  0  0  0  0  0  0  0
  -14.6903  -26.0018   29.7765 N   0  0  0  0  0  0  0  0  0  0  0  0
  -15.0936  -25.7964   31.0166 C   0  0  0  0  0  0  0  0  0  0  0  0
  -14.6668  -24.5742   31.4658 N   0  0  0  0  0  0  0  0  0  0  0  0
  -17.7953  -25.0424   33.0486 N   0  0  0  0  0  0  0  0  0  0  0  0
  -19.0165  -25.3249   33.6027 N   0  0  0  0  0  0  0  0  0  0  0  0
  -18.8199  -25.6501   34.8667 C   0  0  0  0  0  0  0  0  0  0  0  0
  -19.8044  -25.5610   35.9211 C   0  0  0  0  0  0  0  0  0  0  0  0
  -21.1299  -25.9022   35.6741 C   0  0  0  0  0  0  0  0  0  0  0  0
  -22.0868  -25.6747   36.6556 C   0  0  0  0  0  0  0  0  0  0  0  0
  -21.6842  -25.1192   37.8594 C   0  0  0  0  0  0  0  0  0  0  0  0
  -20.4105  -24.7692   38.1331 N   0  0  0  0  0  0  0  0  0  0  0  0
  -19.5059  -24.9826   37.1520 C   0  0  0  0  0  0  0  0  0  0  0  0
  -18.8296  -29.8070   35.4628 H   0  0  0  0  0  0  0  0  0  0  0  0
  -18.5233  -28.4739   34.2144 H   0  0  0  0  0  0  0  0  0  0  0  0
  -17.5106  -28.6726   37.1099 H   0  0  0  0  0  0  0  0  0  0  0  0
  -15.8741  -27.0703   35.6981 H   0  0  0  0  0  0  0  0  0  0  0  0
  -16.9085  -26.3442   36.9322 H   0  0  0  0  0  0  0  0  0  0  0  0
  -19.7594  -20.9636   36.6936 H   0  0  0  0  0  0  0  0  0  0  0  0
  -22.3723  -21.5646   37.0902 H   0  0  0  0  0  0  0  0  0  0  0  0
  -23.2343  -22.7396   34.7828 H   0  0  0  0  0  0  0  0  0  0  0  0
  -21.2421  -22.8298   33.2308 H   0  0  0  0  0  0  0  0  0  0  0  0
  -12.7094  -21.4276   31.9950 H   0  0  0  0  0  0  0  0  0  0  0  0
  -12.2721  -22.7379   29.9682 H   0  0  0  0  0  0  0  0  0  0  0  0
  -15.7133  -26.4607   31.5976 H   0  0  0  0  0  0  0  0  0  0  0  0
  -21.4250  -26.3143   34.7123 H   0  0  0  0  0  0  0  0  0  0  0  0
  -23.1288  -25.9201   36.4841 H   0  0  0  0  0  0  0  0  0  0  0  0
  -22.3998  -24.9253   38.6531 H   0  0  0  0  0  0  0  0  0  0  0  0
  -18.5097  -24.6196   37.3866 H   0  0  0  0  0  0  0  0  0  0  0  0
  1  2  2  0
  2  3  1  0
  3  4  1  0
  4  5  1  0
  5  6  1  0
  6  7  1  0
  7  8  2  0
  8  9  1  0
  9 10  1  0
 10 11  2  0
 11 12  1  0
 12 13  2  0
 13 14  1  0
 14 15  2  0
 15 16  1  0
 16 17  2  0
 17 18  1  0
 13 19  1  0
  8 20  1  0
 20 21  2  0
 21 22  1  0
 22 23  2  0
 23 24  1  0
 24 25  2  0
 25 26  1  0
  5 27  2  0
 27 28  1  0
 28 29  2  0
 29 30  1  0
 30 31  2  0
 31 32  1  0
 32 33  2  0
 33 34  1  0
 34 35  2  0
 29  4  1  0
 35 30  1  0
 26  7  1  0
 19 10  1  0
 26 22  1  0
 18 14  1  0
  1 36  1  0
  1 37  1  0
  2 38  1  0
  3 39  1  0
  3 40  1  0
 15 41  1  0
 16 42  1  0
 17 43  1  0
 18 44  1  0
 20 45  1  0
 21 46  1  0
 25 47  1  0
 31 48  1  0
 32 49  1  0
 33 50  1  0
 35 51  1  0
M  END
>  <Energy>  (1135) 
100.03136469968942

>  <compound_id>  (1135) 
4539

>  <target_id>  (1135) 
1

>  <reference_id>  (1135) 
173

>  <inspiration_ids>  (1135) 
[161, 173]

>  <energy_score>  (1135) 
-36.040175276555516

>  <distance_score>  (1135) 
1.7334471246241512

>  <path>  (1135) 
/opt/xchem-fragalysis-2/maxwin/BulkDock/SCRATCH/505735/C4539-P173/C4539-P173.minimised.mol

>  <scratch_subdir>  (1135) 
/opt/xchem-fragalysis-2/maxwin/BulkDock/SCRATCH/505735/C4539-P173

>  <fragmenstein_runtime>  (1135) 
13.672919034957886

>  <fragmenstein_outcome>  (1135) 
too moved

>  <fragmenstein_mode>  (1135) 
expansion

>  <fragmenstein_error>  (1135) 


$$$$
C2336-P162
     RDKit          3D

 66 72  0  0  0  0  0  0  0  0999 V2000
    3.5132   -2.0139   32.2981 C   0  0  0  0  0  0  0  0  0  0  0  0
    2.2369   -1.7958   32.6464 C   0  0  0  0  0  0  0  0  0  0  0  0
    1.3244   -0.9585   31.8128 C   0  0  0  0  0  0  0  0  0  0  0  0
   -0.0997   -1.1075   32.0731 N   0  0  0  0  0  0  0  0  0  0  0  0
   -1.0288   -0.1341   31.7251 C   0  0  0  0  0  0  0  0  0  0  0  0
   -0.8435    0.7771   30.5954 C   0  0  0  0  0  0  0  0  0  0  0  0
    0.1504    1.7553   30.5360 C   0  0  0  0  0  0  0  0  0  0  0  0
    0.3538    2.4670   29.3508 C   0  0  0  0  0  0  0  0  0  0  0  0
   -0.4517    2.1865   28.2584 C   0  0  0  0  0  0  0  0  0  0  0  0
   -1.4371    1.2692   28.2832 N   0  0  0  0  0  0  0  0  0  0  0  0
   -1.6158    0.6014   29.4467 C   0  0  0  0  0  0  0  0  0  0  0  0
   -2.1535   -0.4635   32.3395 N   0  0  0  0  0  0  0  0  0  0  0  0
   -2.0057   -1.7657   32.8040 N   0  0  0  0  0  0  0  0  0  0  0  0
   -0.8964   -2.2427   32.2495 C   0  0  0  0  0  0  0  0  0  0  0  0
   -0.8644   -3.2598   31.2118 C   0  0  0  0  0  0  0  0  0  0  0  0
   -1.4692   -2.7542   29.9349 C   0  0  0  0  0  0  0  0  0  0  0  0
   -0.7351   -2.4793   28.8405 C   0  0  0  0  0  0  0  0  0  0  0  0
    0.6333   -2.8025   28.8745 C   0  0  0  0  0  0  0  0  0  0  0  0
    1.6818   -2.5138   28.1362 N   0  0  0  0  0  0  0  0  0  0  0  0
    2.7465   -3.2470   28.6072 N   0  0  0  0  0  0  0  0  0  0  0  0
    2.3126   -3.9325   29.6371 C   0  0  0  0  0  0  0  0  0  0  0  0
    1.0213   -3.6277   29.9021 N   0  0  0  0  0  0  0  0  0  0  0  0
    0.2726   -3.9830   31.0494 C   0  0  0  0  0  0  0  0  0  0  0  0
    0.7009   -5.3605   31.7015 C   0  0  0  0  0  0  0  0  0  0  0  0
    0.1734   -5.7340   33.1014 C   0  0  0  0  0  0  0  0  0  0  0  0
   -0.9443   -6.7730   33.2087 C   0  0  0  0  0  0  0  0  0  0  0  0
   -0.6751   -8.1609   32.5976 C   0  0  0  0  0  0  0  0  0  0  0  0
   -1.0230   -8.2301   31.1212 C   0  0  0  0  0  0  0  0  0  0  0  0
   -0.9948   -9.4651   29.7991 C   0  0  0  0  0  0  0  0  0  0  0  0
   -1.3117   -8.3515   28.8737 C   0  0  0  0  0  0  0  0  0  0  0  0
   -2.8563   -7.7418   28.4282 C   0  0  0  0  0  0  0  0  0  0  0  0
   -4.3121   -8.8022   28.1586 C   0  0  0  0  0  0  0  0  0  0  0  0
   -3.5596  -11.0254   28.5313 C   0  0  0  0  0  0  0  0  0  0  0  0
   -1.9747  -10.9220   29.4818 C   0  0  0  0  0  0  0  0  0  0  0  0
    0.1507   -6.6266   30.4339 S   0  0  0  0  0  0  0  0  0  0  0  0
    1.2847   -7.1668   29.7410 O   0  0  0  0  0  0  0  0  0  0  0  0
   -0.6185   -5.7814   29.5693 O   0  0  0  0  0  0  0  0  0  0  0  0
    2.2449   -5.2850   31.7625 C   0  0  0  0  0  0  0  0  0  0  0  0
    3.0083   -4.9062   30.4619 C   0  0  0  0  0  0  0  0  0  0  0  0
    3.9301   -1.6248   31.3706 H   0  0  0  0  0  0  0  0  0  0  0  0
    4.1834   -2.5748   32.9432 H   0  0  0  0  0  0  0  0  0  0  0  0
    1.8735   -2.1665   33.6023 H   0  0  0  0  0  0  0  0  0  0  0  0
    1.5031   -1.0605   30.7419 H   0  0  0  0  0  0  0  0  0  0  0  0
    1.5638    0.0719   32.0965 H   0  0  0  0  0  0  0  0  0  0  0  0
    0.7698    1.9887   31.3965 H   0  0  0  0  0  0  0  0  0  0  0  0
    1.1168    3.2355   29.2824 H   0  0  0  0  0  0  0  0  0  0  0  0
   -0.3354    2.7209   27.3201 H   0  0  0  0  0  0  0  0  0  0  0  0
   -2.4270   -0.1186   29.4213 H   0  0  0  0  0  0  0  0  0  0  0  0
   -2.5294   -2.5178   29.9498 H   0  0  0  0  0  0  0  0  0  0  0  0
   -1.1685   -2.0470   27.9441 H   0  0  0  0  0  0  0  0  0  0  0  0
    1.0002   -6.1190   33.7142 H   0  0  0  0  0  0  0  0  0  0  0  0
   -0.1497   -4.8238   33.6219 H   0  0  0  0  0  0  0  0  0  0  0  0
   -1.1655   -6.9105   34.2745 H   0  0  0  0  0  0  0  0  0  0  0  0
   -1.8163   -6.3456   32.7546 H   0  0  0  0  0  0  0  0  0  0  0  0
    0.3757   -8.3017   32.7701 H   0  0  0  0  0  0  0  0  0  0  0  0
   -1.2795   -8.8899   33.1319 H   0  0  0  0  0  0  0  0  0  0  0  0
   -2.0375   -7.8306   31.0839 H   0  0  0  0  0  0  0  0  0  0  0  0
   -0.7455   -8.7159   27.9965 H   0  0  0  0  0  0  0  0  0  0  0  0
   -3.1320   -7.4944   29.4589 H   0  0  0  0  0  0  0  0  0  0  0  0
   -5.3351   -8.4314   28.0706 H   0  0  0  0  0  0  0  0  0  0  0  0
   -4.1164  -11.9901   28.5809 H   0  0  0  0  0  0  0  0  0  0  0  0
   -1.6962  -11.7934   29.9932 H   0  0  0  0  0  0  0  0  0  0  0  0
    2.5165   -4.5526   32.5311 H   0  0  0  0  0  0  0  0  0  0  0  0
    2.6045   -6.2280   32.1682 H   0  0  0  0  0  0  0  0  0  0  0  0
    3.1534   -5.7604   29.7979 H   0  0  0  0  0  0  0  0  0  0  0  0
    4.0053   -4.5335   30.7237 H   0  0  0  0  0  0  0  0  0  0  0  0
  1  2  2  0
  2  3  1  0
  3  4  1  0
  4  5  1  0
  5  6  1  0
  6  7  2  0
  7  8  1  0
  8  9  2  0
  9 10  1  0
 10 11  2  0
  5 12  2  0
 12 13  1  0
 13 14  2  0
 14 15  1  0
 15 16  1  0
 16 17  2  0
 17 18  1  0
 18 19  2  0
 19 20  1  0
 20 21  2  0
 21 22  1  0
 22 23  1  0
 23 24  1  0
 24 25  1  0
 25 26  1  0
 26 27  1  0
 27 28  1  0
 28 29  1  0
 29 30  2  0
 30 31  1  0
 31 32  2  0
 32 33  1  0
 33 34  2  0
 28 35  1  0
 35 36  2  0
 35 37  2  0
 24 38  1  0
 38 39  1  0
 14  4  1  0
 23 15  2  0
 35 24  1  0
 11  6  1  0
 22 18  1  0
 34 29  1  0
 39 21  1  0
  1 40  1  0
  1 41  1  0
  2 42  1  0
  3 43  1  0
  3 44  1  0
  7 45  1  0
  8 46  1  0
  9 47  1  0
 11 48  1  0
 16 49  1  0
 17 50  1  0
 25 51  1  0
 25 52  1  0
 26 53  1  0
 26 54  1  0
 27 55  1  0
 27 56  1  0
 28 57  1  0
 30 58  1  0
 31 59  1  0
 32 60  1  0
 33 61  1  0
 34 62  1  0
 38 63  1  0
 38 64  1  0
 39 65  1  0
 39 66  1  0
M  END
>  <Energy>  (1136) 
1166.4319989285696

>  <compound_id>  (1136) 
2336

>  <target_id>  (1136) 
1

>  <reference_id>  (1136) 
162

>  <inspiration_ids>  (1136) 
[162, 40]

>  <energy_score>  (1136) 
942.1773482470726

>  <distance_score>  (1136) 
2.835570516679129

>  <path>  (1136) 
/opt/xchem-fragalysis-2/maxwin/BulkDock/SCRATCH/505735/C2336-P162/C2336-P162.minimised.mol

>  <scratch_subdir>  (1136) 
/opt/xchem-fragalysis-2/maxwin/BulkDock/SCRATCH/505735/C2336-P162

>  <fragmenstein_runtime>  (1136) 
9.619189023971558

>  <fragmenstein_outcome>  (1136) 
too moved

>  <fragmenstein_mode>  (1136) 
expansion

>  <fragmenstein_error>  (1136) 


$$$$
C2336-P40
     RDKit          3D

 66 72  0  0  0  0  0  0  0  0999 V2000
    0.7915   -0.8322   32.7303 C   0  0  0  0  0  0  0  0  0  0  0  0
    1.5633   -0.2299   31.8158 C   0  0  0  0  0  0  0  0  0  0  0  0
    1.7062   -0.5921   30.3687 C   0  0  0  0  0  0  0  0  0  0  0  0
    0.6727   -1.4768   29.8739 N   0  0  0  0  0  0  0  0  0  0  0  0
   -0.6272   -1.2061   29.5084 C   0  0  0  0  0  0  0  0  0  0  0  0
   -1.0715   -0.0419   28.7452 C   0  0  0  0  0  0  0  0  0  0  0  0
   -0.6506    1.2651   28.9845 C   0  0  0  0  0  0  0  0  0  0  0  0
   -1.0440    2.3010   28.1312 C   0  0  0  0  0  0  0  0  0  0  0  0
   -1.8654    2.0029   27.0616 C   0  0  0  0  0  0  0  0  0  0  0  0
   -2.2668    0.7532   26.7740 N   0  0  0  0  0  0  0  0  0  0  0  0
   -1.8632   -0.2366   27.6136 C   0  0  0  0  0  0  0  0  0  0  0  0
   -1.2554   -2.3683   29.6142 N   0  0  0  0  0  0  0  0  0  0  0  0
   -0.2949   -3.3518   29.4776 N   0  0  0  0  0  0  0  0  0  0  0  0
    0.8689   -2.7452   29.3650 C   0  0  0  0  0  0  0  0  0  0  0  0
    2.0397   -2.9839   28.5834 C   0  0  0  0  0  0  0  0  0  0  0  0
    2.4610   -1.8648   27.6882 C   0  0  0  0  0  0  0  0  0  0  0  0
    3.5926   -1.8392   26.9800 C   0  0  0  0  0  0  0  0  0  0  0  0
    4.3645   -3.0003   26.9564 C   0  0  0  0  0  0  0  0  0  0  0  0
    5.4755   -3.2893   26.3222 N   0  0  0  0  0  0  0  0  0  0  0  0
    5.8160   -4.5654   26.6581 N   0  0  0  0  0  0  0  0  0  0  0  0
    4.8970   -5.0091   27.4802 C   0  0  0  0  0  0  0  0  0  0  0  0
    3.9200   -4.0815   27.7010 N   0  0  0  0  0  0  0  0  0  0  0  0
    2.7750   -4.1386   28.5725 C   0  0  0  0  0  0  0  0  0  0  0  0
    2.6433   -5.4878   29.4866 C   0  0  0  0  0  0  0  0  0  0  0  0
    2.0261   -5.2231   30.9160 C   0  0  0  0  0  0  0  0  0  0  0  0
    0.5922   -5.7245   31.2589 C   0  0  0  0  0  0  0  0  0  0  0  0
    0.2781   -7.2353   31.1909 C   0  0  0  0  0  0  0  0  0  0  0  0
    0.5871   -7.9883   29.8321 C   0  0  0  0  0  0  0  0  0  0  0  0
   -0.6183   -8.6939   29.0461 C   0  0  0  0  0  0  0  0  0  0  0  0
   -1.4431   -7.5593   28.9922 C   0  0  0  0  0  0  0  0  0  0  0  0
   -2.3719   -7.3526   27.9344 C   0  0  0  0  0  0  0  0  0  0  0  0
   -2.8036   -8.2131   26.5478 C   0  0  0  0  0  0  0  0  0  0  0  0
   -2.0304  -10.0929   26.4607 C   0  0  0  0  0  0  0  0  0  0  0  0
   -1.0093  -10.1455   28.1410 C   0  0  0  0  0  0  0  0  0  0  0  0
    1.5131   -6.6692   28.6812 S   0  0  0  0  0  0  0  0  0  0  0  0
    2.2920   -7.4696   27.7656 O   0  0  0  0  0  0  0  0  0  0  0  0
    0.5373   -5.7253   28.2269 O   0  0  0  0  0  0  0  0  0  0  0  0
    4.0969   -6.0658   29.4946 C   0  0  0  0  0  0  0  0  0  0  0  0
    4.8792   -6.2615   28.1969 C   0  0  0  0  0  0  0  0  0  0  0  0
    0.7788   -0.4806   33.7589 H   0  0  0  0  0  0  0  0  0  0  0  0
    0.1526   -1.6812   32.5010 H   0  0  0  0  0  0  0  0  0  0  0  0
    2.1778    0.6084   32.1431 H   0  0  0  0  0  0  0  0  0  0  0  0
    2.6812   -1.0804   30.2680 H   0  0  0  0  0  0  0  0  0  0  0  0
    1.7362    0.3014   29.7425 H   0  0  0  0  0  0  0  0  0  0  0  0
   -0.0504    1.5216   29.8500 H   0  0  0  0  0  0  0  0  0  0  0  0
   -0.7566    3.3301   28.3248 H   0  0  0  0  0  0  0  0  0  0  0  0
   -2.2366    2.7798   26.3989 H   0  0  0  0  0  0  0  0  0  0  0  0
   -2.1953   -1.2332   27.3215 H   0  0  0  0  0  0  0  0  0  0  0  0
    1.7892   -1.0152   27.5713 H   0  0  0  0  0  0  0  0  0  0  0  0
    3.8635   -1.0030   26.3432 H   0  0  0  0  0  0  0  0  0  0  0  0
    2.0688   -4.1507   31.1360 H   0  0  0  0  0  0  0  0  0  0  0  0
    2.6520   -5.6223   31.7031 H   0  0  0  0  0  0  0  0  0  0  0  0
    0.3880   -5.4055   32.2907 H   0  0  0  0  0  0  0  0  0  0  0  0
   -0.1533   -5.2045   30.6676 H   0  0  0  0  0  0  0  0  0  0  0  0
    0.8112   -7.6915   32.0201 H   0  0  0  0  0  0  0  0  0  0  0  0
   -0.7653   -7.3995   31.4937 H   0  0  0  0  0  0  0  0  0  0  0  0
    1.2326   -8.7947   29.9897 H   0  0  0  0  0  0  0  0  0  0  0  0
   -1.3241   -6.6879   29.6236 H   0  0  0  0  0  0  0  0  0  0  0  0
   -2.5710   -6.3480   27.9642 H   0  0  0  0  0  0  0  0  0  0  0  0
   -3.8616   -8.0524   26.8817 H   0  0  0  0  0  0  0  0  0  0  0  0
   -2.4650  -11.1559   26.4551 H   0  0  0  0  0  0  0  0  0  0  0  0
   -1.6286  -10.7869   28.8226 H   0  0  0  0  0  0  0  0  0  0  0  0
    4.7118   -5.4415   30.1581 H   0  0  0  0  0  0  0  0  0  0  0  0
    4.0951   -7.0723   29.8439 H   0  0  0  0  0  0  0  0  0  0  0  0
    5.9050   -6.5576   28.4515 H   0  0  0  0  0  0  0  0  0  0  0  0
    4.4975   -7.0610   27.5620 H   0  0  0  0  0  0  0  0  0  0  0  0
  1  2  2  0
  2  3  1  0
  3  4  1  0
  4  5  1  0
  5  6  1  0
  6  7  2  0
  7  8  1  0
  8  9  2  0
  9 10  1  0
 10 11  2  0
  5 12  2  0
 12 13  1  0
 13 14  2  0
 14 15  1  0
 15 16  1  0
 16 17  2  0
 17 18  1  0
 18 19  2  0
 19 20  1  0
 20 21  2  0
 21 22  1  0
 22 23  1  0
 23 24  1  0
 24 25  1  0
 25 26  1  0
 26 27  1  0
 27 28  1  0
 28 29  1  0
 29 30  2  0
 30 31  1  0
 31 32  2  0
 32 33  1  0
 33 34  2  0
 28 35  1  0
 35 36  2  0
 35 37  2  0
 24 38  1  0
 38 39  1  0
 14  4  1  0
 23 15  2  0
 35 24  1  0
 11  6  1  0
 22 18  1  0
 34 29  1  0
 39 21  1  0
  1 40  1  0
  1 41  1  0
  2 42  1  0
  3 43  1  0
  3 44  1  0
  7 45  1  0
  8 46  1  0
  9 47  1  0
 11 48  1  0
 16 49  1  0
 17 50  1  0
 25 51  1  0
 25 52  1  0
 26 53  1  0
 26 54  1  0
 27 55  1  0
 27 56  1  0
 28 57  1  0
 30 58  1  0
 31 59  1  0
 32 60  1  0
 33 61  1  0
 34 62  1  0
 38 63  1  0
 38 64  1  0
 39 65  1  0
 39 66  1  0
M  END
>  <Energy>  (1137) 
631.47860243397099

>  <compound_id>  (1137) 
2336

>  <target_id>  (1137) 
1

>  <reference_id>  (1137) 
40

>  <inspiration_ids>  (1137) 
[162, 40]

>  <energy_score>  (1137) 
407.22395175247493

>  <distance_score>  (1137) 
2.47818633651588

>  <path>  (1137) 
/opt/xchem-fragalysis-2/maxwin/BulkDock/SCRATCH/505735/C2336-P40/C2336-P40.minimised.mol

>  <scratch_subdir>  (1137) 
/opt/xchem-fragalysis-2/maxwin/BulkDock/SCRATCH/505735/C2336-P40

>  <fragmenstein_runtime>  (1137) 
9.702803611755371

>  <fragmenstein_outcome>  (1137) 
too moved

>  <fragmenstein_mode>  (1137) 
expansion

>  <fragmenstein_error>  (1137) 


$$$$
C2336-P162
     RDKit          3D

 66 72  0  0  0  0  0  0  0  0999 V2000
    4.4722   -1.9790   30.4904 C   0  0  0  0  0  0  0  0  0  0  0  0
    3.2484   -2.2045   30.0079 C   0  0  0  0  0  0  0  0  0  0  0  0
    2.7437   -3.5382   29.5666 C   0  0  0  0  0  0  0  0  0  0  0  0
    1.4892   -3.9132   30.1772 N   0  0  0  0  0  0  0  0  0  0  0  0
    1.2130   -5.0800   30.8547 C   0  0  0  0  0  0  0  0  0  0  0  0
    1.8791   -5.5993   32.0521 C   0  0  0  0  0  0  0  0  0  0  0  0
    3.0348   -5.0604   32.6277 C   0  0  0  0  0  0  0  0  0  0  0  0
    3.4824   -5.5165   33.8719 C   0  0  0  0  0  0  0  0  0  0  0  0
    2.7696   -6.5157   34.5084 C   0  0  0  0  0  0  0  0  0  0  0  0
    1.6701   -7.0882   33.9773 N   0  0  0  0  0  0  0  0  0  0  0  0
    1.2304   -6.5874   32.7930 C   0  0  0  0  0  0  0  0  0  0  0  0
   -0.0085   -5.4416   30.4923 N   0  0  0  0  0  0  0  0  0  0  0  0
   -0.6261   -4.3398   29.9661 N   0  0  0  0  0  0  0  0  0  0  0  0
    0.2637   -3.3781   29.8955 C   0  0  0  0  0  0  0  0  0  0  0  0
    0.0794   -2.0188   29.6196 C   0  0  0  0  0  0  0  0  0  0  0  0
    0.5426   -1.3946   28.3663 C   0  0  0  0  0  0  0  0  0  0  0  0
    0.1061   -0.2066   27.9302 C   0  0  0  0  0  0  0  0  0  0  0  0
   -0.9699    0.3493   28.6079 C   0  0  0  0  0  0  0  0  0  0  0  0
   -1.8487    1.2583   28.2939 N   0  0  0  0  0  0  0  0  0  0  0  0
   -2.8176    1.1782   29.2459 N   0  0  0  0  0  0  0  0  0  0  0  0
   -2.4754    0.2997   30.1539 C   0  0  0  0  0  0  0  0  0  0  0  0
   -1.2686   -0.2033   29.8282 N   0  0  0  0  0  0  0  0  0  0  0  0
   -0.6502   -1.2717   30.4870 C   0  0  0  0  0  0  0  0  0  0  0  0
   -1.1056   -1.4865   32.0186 C   0  0  0  0  0  0  0  0  0  0  0  0
   -1.8643   -2.7952   32.3481 C   0  0  0  0  0  0  0  0  0  0  0  0
   -1.0485   -3.8982   32.9520 C   0  0  0  0  0  0  0  0  0  0  0  0
   -0.3959   -3.5430   34.2474 C   0  0  0  0  0  0  0  0  0  0  0  0
    0.8539   -2.7445   33.9128 C   0  0  0  0  0  0  0  0  0  0  0  0
    1.8374   -2.6485   35.0604 C   0  0  0  0  0  0  0  0  0  0  0  0
    3.1224   -2.1229   34.8704 C   0  0  0  0  0  0  0  0  0  0  0  0
    4.0762   -2.1925   35.8871 C   0  0  0  0  0  0  0  0  0  0  0  0
    3.7744   -2.8064   37.0972 C   0  0  0  0  0  0  0  0  0  0  0  0
    2.5052   -3.3335   37.2997 C   0  0  0  0  0  0  0  0  0  0  0  0
    1.5434   -3.2319   36.3048 C   0  0  0  0  0  0  0  0  0  0  0  0
    0.3919   -1.1674   33.1742 S   0  0  0  0  0  0  0  0  0  0  0  0
   -0.0494   -0.3058   34.2582 O   0  0  0  0  0  0  0  0  0  0  0  0
    1.5028   -0.7386   32.3392 O   0  0  0  0  0  0  0  0  0  0  0  0
   -2.1140   -0.3486   32.4158 C   0  0  0  0  0  0  0  0  0  0  0  0
   -3.1630   -0.2581   31.3307 C   0  0  0  0  0  0  0  0  0  0  0  0
    4.7659   -0.9760   30.7944 H   0  0  0  0  0  0  0  0  0  0  0  0
    5.2168   -2.7619   30.5941 H   0  0  0  0  0  0  0  0  0  0  0  0
    2.6077   -1.3303   29.9451 H   0  0  0  0  0  0  0  0  0  0  0  0
    3.4722   -4.3298   29.7767 H   0  0  0  0  0  0  0  0  0  0  0  0
    2.5956   -3.5497   28.4814 H   0  0  0  0  0  0  0  0  0  0  0  0
    3.5842   -4.2496   32.1626 H   0  0  0  0  0  0  0  0  0  0  0  0
    4.3585   -5.0827   34.3443 H   0  0  0  0  0  0  0  0  0  0  0  0
    3.0738   -6.8912   35.4819 H   0  0  0  0  0  0  0  0  0  0  0  0
    0.2979   -7.0312   32.4465 H   0  0  0  0  0  0  0  0  0  0  0  0
    1.3075   -1.8963   27.7894 H   0  0  0  0  0  0  0  0  0  0  0  0
    0.4732    0.2736   27.0406 H   0  0  0  0  0  0  0  0  0  0  0  0
   -2.6890   -2.6070   33.0470 H   0  0  0  0  0  0  0  0  0  0  0  0
   -2.3547   -3.1590   31.4394 H   0  0  0  0  0  0  0  0  0  0  0  0
   -1.5757   -4.8403   33.0435 H   0  0  0  0  0  0  0  0  0  0  0  0
   -0.2604   -4.1157   32.2809 H   0  0  0  0  0  0  0  0  0  0  0  0
   -0.1342   -4.4907   34.7329 H   0  0  0  0  0  0  0  0  0  0  0  0
   -1.0781   -3.0016   34.9131 H   0  0  0  0  0  0  0  0  0  0  0  0
    1.4012   -3.2260   33.1075 H   0  0  0  0  0  0  0  0  0  0  0  0
    3.4021   -1.6610   33.9251 H   0  0  0  0  0  0  0  0  0  0  0  0
    5.0644   -1.7666   35.7294 H   0  0  0  0  0  0  0  0  0  0  0  0
    4.5206   -2.8597   37.8854 H   0  0  0  0  0  0  0  0  0  0  0  0
    2.2567   -3.7980   38.2512 H   0  0  0  0  0  0  0  0  0  0  0  0
    0.5642   -3.6399   36.5423 H   0  0  0  0  0  0  0  0  0  0  0  0
   -2.5817   -0.5457   33.3887 H   0  0  0  0  0  0  0  0  0  0  0  0
   -1.6029    0.6194   32.5201 H   0  0  0  0  0  0  0  0  0  0  0  0
   -3.5466   -1.2524   31.0891 H   0  0  0  0  0  0  0  0  0  0  0  0
   -4.0232    0.2916   31.6795 H   0  0  0  0  0  0  0  0  0  0  0  0
  1  2  2  0
  2  3  1  0
  3  4  1  0
  4  5  1  0
  5  6  1  0
  6  7  2  0
  7  8  1  0
  8  9  2  0
  9 10  1  0
 10 11  2  0
  5 12  2  0
 12 13  1  0
 13 14  2  0
 14 15  1  0
 15 16  1  0
 16 17  2  0
 17 18  1  0
 18 19  2  0
 19 20  1  0
 20 21  2  0
 21 22  1  0
 22 23  1  0
 23 24  1  0
 24 25  1  0
 25 26  1  0
 26 27  1  0
 27 28  1  0
 28 29  1  0
 29 30  2  0
 30 31  1  0
 31 32  2  0
 32 33  1  0
 33 34  2  0
 28 35  1  0
 35 36  2  0
 35 37  2  0
 24 38  1  0
 38 39  1  0
 14  4  1  0
 23 15  2  0
 35 24  1  0
 11  6  1  0
 22 18  1  0
 34 29  1  0
 39 21  1  0
  1 40  1  0
  1 41  1  0
  2 42  1  0
  3 43  1  0
  3 44  1  0
  7 45  1  0
  8 46  1  0
  9 47  1  0
 11 48  1  0
 16 49  1  0
 17 50  1  0
 25 51  1  0
 25 52  1  0
 26 53  1  0
 26 54  1  0
 27 55  1  0
 27 56  1  0
 28 57  1  0
 30 58  1  0
 31 59  1  0
 32 60  1  0
 33 61  1  0
 34 62  1  0
 38 63  1  0
 38 64  1  0
 39 65  1  0
 39 66  1  0
M  END
>  <Energy>  (1138) 
196.45709545372813

>  <compound_id>  (1138) 
2336

>  <target_id>  (1138) 
1

>  <reference_id>  (1138) 
162

>  <inspiration_ids>  (1138) 
[162, 41]

>  <energy_score>  (1138) 
-31.030440630769363

>  <distance_score>  (1138) 
2.5451225566017057

>  <path>  (1138) 
/opt/xchem-fragalysis-2/maxwin/BulkDock/SCRATCH/505735/C2336-P162/C2336-P162.minimised.mol

>  <scratch_subdir>  (1138) 
/opt/xchem-fragalysis-2/maxwin/BulkDock/SCRATCH/505735/C2336-P162

>  <fragmenstein_runtime>  (1138) 
3.6519739627838135

>  <fragmenstein_outcome>  (1138) 
too moved

>  <fragmenstein_mode>  (1138) 
expansion

>  <fragmenstein_error>  (1138) 


$$$$
C2336-P41
     RDKit          3D

 66 72  0  0  0  0  0  0  0  0999 V2000
    3.0813   -1.7608   29.1703 C   0  0  0  0  0  0  0  0  0  0  0  0
    2.2800   -2.8041   28.9110 C   0  0  0  0  0  0  0  0  0  0  0  0
    2.0735   -3.9476   29.8552 C   0  0  0  0  0  0  0  0  0  0  0  0
    0.8291   -3.9839   30.6008 N   0  0  0  0  0  0  0  0  0  0  0  0
    0.3841   -4.9979   31.4334 C   0  0  0  0  0  0  0  0  0  0  0  0
    1.1289   -5.8265   32.3790 C   0  0  0  0  0  0  0  0  0  0  0  0
    2.4409   -5.5920   32.7879 C   0  0  0  0  0  0  0  0  0  0  0  0
    2.9567   -6.2282   33.9190 C   0  0  0  0  0  0  0  0  0  0  0  0
    2.1535   -7.1061   34.6163 C   0  0  0  0  0  0  0  0  0  0  0  0
    0.9105   -7.4203   34.2182 N   0  0  0  0  0  0  0  0  0  0  0  0
    0.4243   -6.7686   33.1277 C   0  0  0  0  0  0  0  0  0  0  0  0
   -0.9372   -4.9247   31.4589 N   0  0  0  0  0  0  0  0  0  0  0  0
   -1.2916   -3.6986   30.9959 N   0  0  0  0  0  0  0  0  0  0  0  0
   -0.1801   -3.0692   30.6642 C   0  0  0  0  0  0  0  0  0  0  0  0
   -0.0057   -1.6653   30.5550 C   0  0  0  0  0  0  0  0  0  0  0  0
   -0.4494   -1.0238   29.2872 C   0  0  0  0  0  0  0  0  0  0  0  0
   -1.5780   -0.2996   29.2594 C   0  0  0  0  0  0  0  0  0  0  0  0
   -2.2118   -0.1449   30.5021 C   0  0  0  0  0  0  0  0  0  0  0  0
   -3.4438   -0.1577   30.9363 N   0  0  0  0  0  0  0  0  0  0  0  0
   -3.4781   -0.0094   32.3044 N   0  0  0  0  0  0  0  0  0  0  0  0
   -2.2356    0.1608   32.6664 C   0  0  0  0  0  0  0  0  0  0  0  0
   -1.4355   -0.2389   31.6208 N   0  0  0  0  0  0  0  0  0  0  0  0
   -0.2731   -1.0096   31.7313 C   0  0  0  0  0  0  0  0  0  0  0  0
   -0.0270   -1.3209   33.2739 C   0  0  0  0  0  0  0  0  0  0  0  0
   -0.9945   -2.4129   33.8273 C   0  0  0  0  0  0  0  0  0  0  0  0
   -1.0025   -2.5627   35.3503 C   0  0  0  0  0  0  0  0  0  0  0  0
    0.3862   -2.5279   35.9691 C   0  0  0  0  0  0  0  0  0  0  0  0
    1.4425   -3.0340   34.9771 C   0  0  0  0  0  0  0  0  0  0  0  0
    2.6748   -3.4873   35.7068 C   0  0  0  0  0  0  0  0  0  0  0  0
    3.9488   -2.9329   35.6146 C   0  0  0  0  0  0  0  0  0  0  0  0
    4.9878   -3.4481   36.3873 C   0  0  0  0  0  0  0  0  0  0  0  0
    4.7790   -4.5328   37.2361 C   0  0  0  0  0  0  0  0  0  0  0  0
    3.5156   -5.1024   37.3267 C   0  0  0  0  0  0  0  0  0  0  0  0
    2.4761   -4.5753   36.5813 C   0  0  0  0  0  0  0  0  0  0  0  0
    1.7023   -1.8169   33.6605 S   0  0  0  0  0  0  0  0  0  0  0  0
    2.3881   -0.6592   34.2099 O   0  0  0  0  0  0  0  0  0  0  0  0
    2.2994   -2.4905   32.5246 O   0  0  0  0  0  0  0  0  0  0  0  0
   -0.2513    0.0440   34.0374 C   0  0  0  0  0  0  0  0  0  0  0  0
   -1.7043    0.4770   33.9963 C   0  0  0  0  0  0  0  0  0  0  0  0
    3.2004   -0.9574   28.4489 H   0  0  0  0  0  0  0  0  0  0  0  0
    3.6231   -1.6699   30.1086 H   0  0  0  0  0  0  0  0  0  0  0  0
    1.7559   -2.8505   27.9602 H   0  0  0  0  0  0  0  0  0  0  0  0
    2.9026   -3.9732   30.5600 H   0  0  0  0  0  0  0  0  0  0  0  0
    2.1158   -4.8825   29.2831 H   0  0  0  0  0  0  0  0  0  0  0  0
    3.0778   -4.8505   32.3244 H   0  0  0  0  0  0  0  0  0  0  0  0
    3.9605   -6.0037   34.2697 H   0  0  0  0  0  0  0  0  0  0  0  0
    2.5032   -7.6042   35.5163 H   0  0  0  0  0  0  0  0  0  0  0  0
   -0.6135   -7.0086   32.9013 H   0  0  0  0  0  0  0  0  0  0  0  0
    0.0707   -1.2467   28.3627 H   0  0  0  0  0  0  0  0  0  0  0  0
   -2.0181    0.0831   28.3467 H   0  0  0  0  0  0  0  0  0  0  0  0
   -2.0275   -2.2679   33.4958 H   0  0  0  0  0  0  0  0  0  0  0  0
   -0.7143   -3.3837   33.4213 H   0  0  0  0  0  0  0  0  0  0  0  0
   -1.6324   -1.8069   35.8285 H   0  0  0  0  0  0  0  0  0  0  0  0
   -1.4679   -3.5262   35.5924 H   0  0  0  0  0  0  0  0  0  0  0  0
    0.3398   -3.1250   36.8872 H   0  0  0  0  0  0  0  0  0  0  0  0
    0.6430   -1.5215   36.3155 H   0  0  0  0  0  0  0  0  0  0  0  0
    1.0551   -3.9189   34.4670 H   0  0  0  0  0  0  0  0  0  0  0  0
    4.1762   -2.0886   34.9702 H   0  0  0  0  0  0  0  0  0  0  0  0
    5.9767   -2.9979   36.3250 H   0  0  0  0  0  0  0  0  0  0  0  0
    5.5997   -4.9232   37.8326 H   0  0  0  0  0  0  0  0  0  0  0  0
    3.3425   -5.9401   37.9975 H   0  0  0  0  0  0  0  0  0  0  0  0
    1.4947   -5.0402   36.6816 H   0  0  0  0  0  0  0  0  0  0  0  0
    0.0718    0.0246   35.0803 H   0  0  0  0  0  0  0  0  0  0  0  0
    0.3642    0.8234   33.5622 H   0  0  0  0  0  0  0  0  0  0  0  0
   -2.2983   -0.0297   34.7618 H   0  0  0  0  0  0  0  0  0  0  0  0
   -1.7801    1.5488   34.2049 H   0  0  0  0  0  0  0  0  0  0  0  0
  1  2  2  0
  2  3  1  0
  3  4  1  0
  4  5  1  0
  5  6  1  0
  6  7  2  0
  7  8  1  0
  8  9  2  0
  9 10  1  0
 10 11  2  0
  5 12  2  0
 12 13  1  0
 13 14  2  0
 14 15  1  0
 15 16  1  0
 16 17  2  0
 17 18  1  0
 18 19  2  0
 19 20  1  0
 20 21  2  0
 21 22  1  0
 22 23  1  0
 23 24  1  0
 24 25  1  0
 25 26  1  0
 26 27  1  0
 27 28  1  0
 28 29  1  0
 29 30  2  0
 30 31  1  0
 31 32  2  0
 32 33  1  0
 33 34  2  0
 28 35  1  0
 35 36  2  0
 35 37  2  0
 24 38  1  0
 38 39  1  0
 14  4  1  0
 23 15  2  0
 35 24  1  0
 11  6  1  0
 22 18  1  0
 34 29  1  0
 39 21  1  0
  1 40  1  0
  1 41  1  0
  2 42  1  0
  3 43  1  0
  3 44  1  0
  7 45  1  0
  8 46  1  0
  9 47  1  0
 11 48  1  0
 16 49  1  0
 17 50  1  0
 25 51  1  0
 25 52  1  0
 26 53  1  0
 26 54  1  0
 27 55  1  0
 27 56  1  0
 28 57  1  0
 30 58  1  0
 31 59  1  0
 32 60  1  0
 33 61  1  0
 34 62  1  0
 38 63  1  0
 38 64  1  0
 39 65  1  0
 39 66  1  0
M  END
>  <Energy>  (1139) 
213.08952035935155

>  <compound_id>  (1139) 
2336

>  <target_id>  (1139) 
1

>  <reference_id>  (1139) 
41

>  <inspiration_ids>  (1139) 
[162, 41]

>  <energy_score>  (1139) 
-14.398015725145342

>  <distance_score>  (1139) 
2.7333211552254326

>  <path>  (1139) 
/opt/xchem-fragalysis-2/maxwin/BulkDock/SCRATCH/505735/C2336-P41/C2336-P41.minimised.mol

>  <scratch_subdir>  (1139) 
/opt/xchem-fragalysis-2/maxwin/BulkDock/SCRATCH/505735/C2336-P41

>  <fragmenstein_runtime>  (1139) 
4.832399606704712

>  <fragmenstein_outcome>  (1139) 
too moved

>  <fragmenstein_mode>  (1139) 
expansion

>  <fragmenstein_error>  (1139) 


$$$$
C4379-P162
     RDKit          3D

 70 76  0  0  0  0  0  0  0  0999 V2000
    2.6324   -1.5975   31.0468 C   0  0  0  0  0  0  0  0  0  0  0  0
    2.3357   -1.9289   29.7798 C   0  0  0  0  0  0  0  0  0  0  0  0
    1.2268   -2.8923   29.3756 C   0  0  0  0  0  0  0  0  0  0  0  0
    0.1195   -3.0008   30.3101 N   0  0  0  0  0  0  0  0  0  0  0  0
   -0.0283   -3.8657   31.3579 C   0  0  0  0  0  0  0  0  0  0  0  0
    1.2803   -4.7909   32.0226 S   0  0  0  0  0  0  0  0  0  0  0  0
    0.3551   -5.8748   33.0003 C   0  0  0  0  0  0  0  0  0  0  0  0
    0.3480   -5.7791   34.3456 C   0  0  0  0  0  0  0  0  0  0  0  0
   -0.4273   -6.7331   35.1259 C   0  0  0  0  0  0  0  0  0  0  0  0
   -1.1485   -7.7021   34.5319 C   0  0  0  0  0  0  0  0  0  0  0  0
   -1.1522   -7.8059   33.1146 C   0  0  0  0  0  0  0  0  0  0  0  0
   -1.7425   -8.6278   32.2731 N   0  0  0  0  0  0  0  0  0  0  0  0
   -1.3557   -8.2958   30.9986 N   0  0  0  0  0  0  0  0  0  0  0  0
   -0.5328   -7.2798   31.0954 C   0  0  0  0  0  0  0  0  0  0  0  0
   -0.3872   -6.8991   32.4033 N   0  0  0  0  0  0  0  0  0  0  0  0
   -1.2695   -3.8308   31.7851 N   0  0  0  0  0  0  0  0  0  0  0  0
   -1.9229   -2.8476   31.0829 N   0  0  0  0  0  0  0  0  0  0  0  0
   -1.0667   -2.3066   30.2364 C   0  0  0  0  0  0  0  0  0  0  0  0
   -1.2933   -1.1405   29.4086 C   0  0  0  0  0  0  0  0  0  0  0  0
   -0.7029    0.0834   29.7281 C   0  0  0  0  0  0  0  0  0  0  0  0
   -0.9644    1.1962   28.9391 C   0  0  0  0  0  0  0  0  0  0  0  0
   -1.8395    1.0557   27.8785 C   0  0  0  0  0  0  0  0  0  0  0  0
   -2.3794   -0.1180   27.5124 N   0  0  0  0  0  0  0  0  0  0  0  0
   -2.1054   -1.1901   28.2880 C   0  0  0  0  0  0  0  0  0  0  0  0
    3.0827   -1.3750   28.7383 N   0  0  0  0  0  0  0  0  0  0  0  0
    3.0008    0.0626   28.4617 C   0  0  0  0  0  0  0  0  0  0  0  0
    2.0569    0.3875   27.4194 N   0  0  0  0  0  0  0  0  0  0  0  0
    4.3024    0.6694   28.0661 C   0  0  0  0  0  0  0  0  0  0  0  0
    5.3065   -0.1822   27.6750 O   0  0  0  0  0  0  0  0  0  0  0  0
    6.3560    0.6397   27.4191 C   0  0  0  0  0  0  0  0  0  0  0  0
    6.1162    1.9157   27.6030 N   0  0  0  0  0  0  0  0  0  0  0  0
    4.7929    1.9596   28.0285 C   0  0  0  0  0  0  0  0  0  0  0  0
    4.1357    3.2017   28.4686 C   0  0  0  0  0  0  0  0  0  0  0  0
    4.7510    3.9282   29.1490 O   0  0  0  0  0  0  0  0  0  0  0  0
    2.6890    3.3296   27.9052 N   0  0  0  0  0  0  0  0  0  0  0  0
    1.7882    4.3682   27.9829 C   0  0  0  0  0  0  0  0  0  0  0  0
    2.0490    5.4228   28.7771 C   0  0  0  0  0  0  0  0  0  0  0  0
    1.2446    6.5261   28.8446 N   0  0  0  0  0  0  0  0  0  0  0  0
    0.1138    6.7099   28.0912 C   0  0  0  0  0  0  0  0  0  0  0  0
   -0.5208    7.7573   28.1328 O   0  0  0  0  0  0  0  0  0  0  0  0
   -0.2652    5.5746   27.2134 C   0  0  0  0  0  0  0  0  0  0  0  0
   -1.4159    5.7000   26.4269 C   0  0  0  0  0  0  0  0  0  0  0  0
   -1.8185    4.6550   25.6049 C   0  0  0  0  0  0  0  0  0  0  0  0
   -1.0549    3.4962   25.5528 C   0  0  0  0  0  0  0  0  0  0  0  0
    0.1140    3.3800   26.3195 C   0  0  0  0  0  0  0  0  0  0  0  0
    0.5337    4.4118   27.1735 C   0  0  0  0  0  0  0  0  0  0  0  0
    3.4468   -0.9164   31.2812 H   0  0  0  0  0  0  0  0  0  0  0  0
    2.0897   -1.9675   31.9084 H   0  0  0  0  0  0  0  0  0  0  0  0
    1.6421   -3.8945   29.2188 H   0  0  0  0  0  0  0  0  0  0  0  0
    0.8031   -2.5862   28.4121 H   0  0  0  0  0  0  0  0  0  0  0  0
    0.8904   -5.0090   34.8852 H   0  0  0  0  0  0  0  0  0  0  0  0
   -0.4124   -6.6437   36.2088 H   0  0  0  0  0  0  0  0  0  0  0  0
   -1.7134   -8.4233   35.1131 H   0  0  0  0  0  0  0  0  0  0  0  0
   -0.0363   -6.7927   30.2721 H   0  0  0  0  0  0  0  0  0  0  0  0
   -0.0618    0.1830   30.5998 H   0  0  0  0  0  0  0  0  0  0  0  0
   -0.5282    2.1622   29.1684 H   0  0  0  0  0  0  0  0  0  0  0  0
   -2.1668    1.9091   27.2972 H   0  0  0  0  0  0  0  0  0  0  0  0
   -2.5930   -2.1054   27.9756 H   0  0  0  0  0  0  0  0  0  0  0  0
    4.0762   -1.5594   28.9123 H   0  0  0  0  0  0  0  0  0  0  0  0
    2.6793    0.5885   29.3700 H   0  0  0  0  0  0  0  0  0  0  0  0
    2.3588   -0.2059   26.6422 H   0  0  0  0  0  0  0  0  0  0  0  0
    1.1700   -0.0438   27.6872 H   0  0  0  0  0  0  0  0  0  0  0  0
    7.2732    0.1719   27.0882 H   0  0  0  0  0  0  0  0  0  0  0  0
    2.4978    2.5504   27.2782 H   0  0  0  0  0  0  0  0  0  0  0  0
    2.9315    5.4842   29.4054 H   0  0  0  0  0  0  0  0  0  0  0  0
    1.4946    7.3042   29.4432 H   0  0  0  0  0  0  0  0  0  0  0  0
   -1.9991    6.6172   26.4562 H   0  0  0  0  0  0  0  0  0  0  0  0
   -2.7265    4.7515   25.0124 H   0  0  0  0  0  0  0  0  0  0  0  0
   -1.3684    2.6850   24.9064 H   0  0  0  0  0  0  0  0  0  0  0  0
    0.6849    2.4629   26.2303 H   0  0  0  0  0  0  0  0  0  0  0  0
  1  2  2  0
  2  3  1  0
  3  4  1  0
  4  5  1  0
  5  6  1  0
  6  7  1  0
  7  8  2  0
  8  9  1  0
  9 10  2  0
 10 11  1  0
 11 12  2  0
 12 13  1  0
 13 14  2  0
 14 15  1  0
  5 16  2  0
 16 17  1  0
 17 18  2  0
 18 19  1  0
 19 20  2  0
 20 21  1  0
 21 22  2  0
 22 23  1  0
 23 24  2  0
  2 25  1  0
 25 26  1  0
 26 27  1  0
 26 28  1  0
 28 29  1  0
 29 30  1  0
 30 31  2  0
 31 32  1  0
 32 33  1  0
 33 34  2  0
 33 35  1  0
 35 36  1  0
 36 37  2  0
 37 38  1  0
 38 39  1  0
 39 40  2  0
 39 41  1  0
 41 42  2  0
 42 43  1  0
 43 44  2  0
 44 45  1  0
 45 46  2  0
 18  4  1  0
 24 19  1  0
 32 28  2  0
 46 36  1  0
 15  7  1  0
 46 41  1  0
 15 11  1  0
  1 47  1  0
  1 48  1  0
  3 49  1  0
  3 50  1  0
  8 51  1  0
  9 52  1  0
 10 53  1  0
 14 54  1  0
 20 55  1  0
 21 56  1  0
 22 57  1  0
 24 58  1  0
 25 59  1  0
 26 60  1  0
 27 61  1  0
 27 62  1  0
 30 63  1  0
 35 64  1  0
 37 65  1  0
 38 66  1  0
 42 67  1  0
 43 68  1  0
 44 69  1  0
 45 70  1  0
M  END
>  <Energy>  (1140) 
91.132600688653596

>  <compound_id>  (1140) 
4379

>  <target_id>  (1140) 
1

>  <reference_id>  (1140) 
162

>  <inspiration_ids>  (1140) 
[162, 44]

>  <energy_score>  (1140) 
-60.71634674277135

>  <distance_score>  (1140) 
1.227265913135463

>  <path>  (1140) 
/opt/xchem-fragalysis-2/maxwin/BulkDock/SCRATCH/505735/C4379-P162/C4379-P162.minimised.mol

>  <scratch_subdir>  (1140) 
/opt/xchem-fragalysis-2/maxwin/BulkDock/SCRATCH/505735/C4379-P162

>  <fragmenstein_runtime>  (1140) 
26.629525661468506

>  <fragmenstein_outcome>  (1140) 
too moved

>  <fragmenstein_mode>  (1140) 
expansion

>  <fragmenstein_error>  (1140) 


$$$$
C4379-P44
     RDKit          3D

 70 76  0  0  0  0  0  0  0  0999 V2000
    2.7634   -1.4976   30.8756 C   0  0  0  0  0  0  0  0  0  0  0  0
    2.4486   -1.8398   29.6155 C   0  0  0  0  0  0  0  0  0  0  0  0
    1.3365   -2.8206   29.2527 C   0  0  0  0  0  0  0  0  0  0  0  0
    0.2403   -2.9182   30.2057 N   0  0  0  0  0  0  0  0  0  0  0  0
    0.0944   -3.7785   31.2575 C   0  0  0  0  0  0  0  0  0  0  0  0
    1.3907   -4.7350   31.9036 S   0  0  0  0  0  0  0  0  0  0  0  0
    0.4380   -5.7599   32.9196 C   0  0  0  0  0  0  0  0  0  0  0  0
    0.4107   -5.5942   34.2580 C   0  0  0  0  0  0  0  0  0  0  0  0
   -0.4334   -6.4597   35.0676 C   0  0  0  0  0  0  0  0  0  0  0  0
   -1.1937   -7.4167   34.5052 C   0  0  0  0  0  0  0  0  0  0  0  0
   -1.1661   -7.6045   33.0966 C   0  0  0  0  0  0  0  0  0  0  0  0
   -1.7921   -8.4316   32.2863 N   0  0  0  0  0  0  0  0  0  0  0  0
   -1.3707   -8.1821   31.0049 N   0  0  0  0  0  0  0  0  0  0  0  0
   -0.5015   -7.2022   31.0646 C   0  0  0  0  0  0  0  0  0  0  0  0
   -0.3418   -6.7768   32.3572 N   0  0  0  0  0  0  0  0  0  0  0  0
   -1.1385   -3.7219   31.7087 N   0  0  0  0  0  0  0  0  0  0  0  0
   -1.7922   -2.7390   31.0092 N   0  0  0  0  0  0  0  0  0  0  0  0
   -0.9422   -2.2154   30.1459 C   0  0  0  0  0  0  0  0  0  0  0  0
   -1.1691   -1.0649   29.3007 C   0  0  0  0  0  0  0  0  0  0  0  0
   -0.6421    0.1799   29.6316 C   0  0  0  0  0  0  0  0  0  0  0  0
   -0.8823    1.2603   28.7930 C   0  0  0  0  0  0  0  0  0  0  0  0
   -1.6612    1.0642   27.6678 C   0  0  0  0  0  0  0  0  0  0  0  0
   -2.1496   -0.1280   27.3033 N   0  0  0  0  0  0  0  0  0  0  0  0
   -1.8992   -1.1613   28.1293 C   0  0  0  0  0  0  0  0  0  0  0  0
    3.1888   -1.2925   28.5556 N   0  0  0  0  0  0  0  0  0  0  0  0
    2.9625    0.1044   28.1567 C   0  0  0  0  0  0  0  0  0  0  0  0
    2.0015    0.2644   27.0942 N   0  0  0  0  0  0  0  0  0  0  0  0
    4.1958    0.8392   27.7273 C   0  0  0  0  0  0  0  0  0  0  0  0
    5.2824    0.1280   27.2880 O   0  0  0  0  0  0  0  0  0  0  0  0
    6.1940    1.0924   26.9761 C   0  0  0  0  0  0  0  0  0  0  0  0
    5.8011    2.3286   27.1874 N   0  0  0  0  0  0  0  0  0  0  0  0
    4.5122    2.1838   27.6581 C   0  0  0  0  0  0  0  0  0  0  0  0
    3.6295    3.2744   28.0726 C   0  0  0  0  0  0  0  0  0  0  0  0
    3.8764    3.9000   29.0281 O   0  0  0  0  0  0  0  0  0  0  0  0
    2.3964    3.3187   27.1338 N   0  0  0  0  0  0  0  0  0  0  0  0
    1.2350    4.0349   27.2263 C   0  0  0  0  0  0  0  0  0  0  0  0
    0.9105    4.7000   28.3484 C   0  0  0  0  0  0  0  0  0  0  0  0
   -0.3800    5.0876   28.5963 N   0  0  0  0  0  0  0  0  0  0  0  0
   -1.4371    4.7152   27.8049 C   0  0  0  0  0  0  0  0  0  0  0  0
   -2.5840    4.6864   28.2176 O   0  0  0  0  0  0  0  0  0  0  0  0
   -1.1213    4.2619   26.4489 C   0  0  0  0  0  0  0  0  0  0  0  0
   -2.1546    4.1192   25.5085 C   0  0  0  0  0  0  0  0  0  0  0  0
   -1.8737    3.6981   24.2236 C   0  0  0  0  0  0  0  0  0  0  0  0
   -0.5582    3.4227   23.8990 C   0  0  0  0  0  0  0  0  0  0  0  0
    0.4680    3.5226   24.8546 C   0  0  0  0  0  0  0  0  0  0  0  0
    0.2031    3.9271   26.1630 C   0  0  0  0  0  0  0  0  0  0  0  0
    2.2375   -1.8686   31.7473 H   0  0  0  0  0  0  0  0  0  0  0  0
    3.5726   -0.8038   31.0898 H   0  0  0  0  0  0  0  0  0  0  0  0
    1.7577   -3.8229   29.1140 H   0  0  0  0  0  0  0  0  0  0  0  0
    0.8970   -2.5425   28.2879 H   0  0  0  0  0  0  0  0  0  0  0  0
    0.9729   -4.8164   34.7656 H   0  0  0  0  0  0  0  0  0  0  0  0
   -0.4443   -6.3021   36.1423 H   0  0  0  0  0  0  0  0  0  0  0  0
   -1.8232   -8.0639   35.1031 H   0  0  0  0  0  0  0  0  0  0  0  0
    0.0218   -6.7716   30.2275 H   0  0  0  0  0  0  0  0  0  0  0  0
   -0.0650    0.3211   30.5409 H   0  0  0  0  0  0  0  0  0  0  0  0
   -0.5036    2.2441   29.0357 H   0  0  0  0  0  0  0  0  0  0  0  0
   -1.9471    1.8744   27.0157 H   0  0  0  0  0  0  0  0  0  0  0  0
   -2.3287   -2.0938   27.8046 H   0  0  0  0  0  0  0  0  0  0  0  0
    4.1841   -1.3368   28.7950 H   0  0  0  0  0  0  0  0  0  0  0  0
    2.5786    0.6536   29.0268 H   0  0  0  0  0  0  0  0  0  0  0  0
    1.1221   -0.1533   27.3993 H   0  0  0  0  0  0  0  0  0  0  0  0
    2.3199   -0.3622   26.3576 H   0  0  0  0  0  0  0  0  0  0  0  0
    7.1460    0.7521   26.5918 H   0  0  0  0  0  0  0  0  0  0  0  0
    2.5453    2.6928   26.3488 H   0  0  0  0  0  0  0  0  0  0  0  0
    1.5920    4.8404   29.1808 H   0  0  0  0  0  0  0  0  0  0  0  0
   -0.6688    5.3958   29.5265 H   0  0  0  0  0  0  0  0  0  0  0  0
   -3.1830    4.3325   25.7781 H   0  0  0  0  0  0  0  0  0  0  0  0
   -2.6697    3.6112   23.4872 H   0  0  0  0  0  0  0  0  0  0  0  0
   -0.3196    3.1637   22.8697 H   0  0  0  0  0  0  0  0  0  0  0  0
    1.4848    3.3134   24.5319 H   0  0  0  0  0  0  0  0  0  0  0  0
  1  2  2  0
  2  3  1  0
  3  4  1  0
  4  5  1  0
  5  6  1  0
  6  7  1  0
  7  8  2  0
  8  9  1  0
  9 10  2  0
 10 11  1  0
 11 12  2  0
 12 13  1  0
 13 14  2  0
 14 15  1  0
  5 16  2  0
 16 17  1  0
 17 18  2  0
 18 19  1  0
 19 20  2  0
 20 21  1  0
 21 22  2  0
 22 23  1  0
 23 24  2  0
  2 25  1  0
 25 26  1  0
 26 27  1  0
 26 28  1  0
 28 29  1  0
 29 30  1  0
 30 31  2  0
 31 32  1  0
 32 33  1  0
 33 34  2  0
 33 35  1  0
 35 36  1  0
 36 37  2  0
 37 38  1  0
 38 39  1  0
 39 40  2  0
 39 41  1  0
 41 42  2  0
 42 43  1  0
 43 44  2  0
 44 45  1  0
 45 46  2  0
 18  4  1  0
 24 19  1  0
 32 28  2  0
 46 36  1  0
 15  7  1  0
 46 41  1  0
 15 11  1  0
  1 47  1  0
  1 48  1  0
  3 49  1  0
  3 50  1  0
  8 51  1  0
  9 52  1  0
 10 53  1  0
 14 54  1  0
 20 55  1  0
 21 56  1  0
 22 57  1  0
 24 58  1  0
 25 59  1  0
 26 60  1  0
 27 61  1  0
 27 62  1  0
 30 63  1  0
 35 64  1  0
 37 65  1  0
 38 66  1  0
 42 67  1  0
 43 68  1  0
 44 69  1  0
 45 70  1  0
M  END
>  <Energy>  (1141) 
96.657367177497136

>  <compound_id>  (1141) 
4379

>  <target_id>  (1141) 
1

>  <reference_id>  (1141) 
44

>  <inspiration_ids>  (1141) 
[162, 44]

>  <energy_score>  (1141) 
-55.191580253924826

>  <distance_score>  (1141) 
1.3984401420731525

>  <path>  (1141) 
/opt/xchem-fragalysis-2/maxwin/BulkDock/SCRATCH/505735/C4379-P44/C4379-P44.minimised.mol

>  <scratch_subdir>  (1141) 
/opt/xchem-fragalysis-2/maxwin/BulkDock/SCRATCH/505735/C4379-P44

>  <fragmenstein_runtime>  (1141) 
21.231724739074707

>  <fragmenstein_outcome>  (1141) 
too moved

>  <fragmenstein_mode>  (1141) 
expansion

>  <fragmenstein_error>  (1141) 


$$$$
C4541-P162
     RDKit          3D

 73 79  0  0  0  0  0  0  0  0999 V2000
    1.5388    5.2275   28.5751 O   0  0  0  0  0  0  0  0  0  0  0  0
    0.8633    5.4447   27.6495 C   0  0  0  0  0  0  0  0  0  0  0  0
    1.1271    6.3092   26.4006 N   0  0  0  0  0  0  0  0  0  0  0  0
    2.2412    6.9685   26.0077 C   0  0  0  0  0  0  0  0  0  0  0  0
    2.2101    8.1434   25.3674 C   0  0  0  0  0  0  0  0  0  0  0  0
    3.3666    8.8143   25.0581 N   0  0  0  0  0  0  0  0  0  0  0  0
    4.6321    8.3677   25.3821 C   0  0  0  0  0  0  0  0  0  0  0  0
    5.6313    9.0407   25.1570 O   0  0  0  0  0  0  0  0  0  0  0  0
    4.7166    7.0079   25.9792 C   0  0  0  0  0  0  0  0  0  0  0  0
    5.9657    6.4187   26.2121 C   0  0  0  0  0  0  0  0  0  0  0  0
    6.0571    5.0995   26.6620 C   0  0  0  0  0  0  0  0  0  0  0  0
    4.9065    4.3482   26.8297 C   0  0  0  0  0  0  0  0  0  0  0  0
    3.6730    4.9384   26.5748 C   0  0  0  0  0  0  0  0  0  0  0  0
    3.5437    6.2977   26.2233 C   0  0  0  0  0  0  0  0  0  0  0  0
   -0.4135    4.8013   27.4593 C   0  0  0  0  0  0  0  0  0  0  0  0
   -1.5256    5.3616   26.8694 N   0  0  0  0  0  0  0  0  0  0  0  0
   -2.2911    4.3191   26.6349 C   0  0  0  0  0  0  0  0  0  0  0  0
   -1.7111    3.1112   26.8824 O   0  0  0  0  0  0  0  0  0  0  0  0
   -0.4967    3.4226   27.4259 C   0  0  0  0  0  0  0  0  0  0  0  0
    0.5126    2.3435   27.6631 C   0  0  0  0  0  0  0  0  0  0  0  0
    0.8463    2.2309   29.0781 N   0  0  0  0  0  0  0  0  0  0  0  0
    2.1656    1.6725   29.3124 C   0  0  0  0  0  0  0  0  0  0  0  0
    2.4489    0.3023   28.9325 N   0  0  0  0  0  0  0  0  0  0  0  0
    1.9069   -0.8056   29.5402 C   0  0  0  0  0  0  0  0  0  0  0  0
    1.7610   -1.9975   28.9516 C   0  0  0  0  0  0  0  0  0  0  0  0
    1.0479   -3.2066   29.4701 C   0  0  0  0  0  0  0  0  0  0  0  0
    0.0983   -3.0118   30.5568 N   0  0  0  0  0  0  0  0  0  0  0  0
    0.0827   -3.6590   31.7634 C   0  0  0  0  0  0  0  0  0  0  0  0
    1.3880   -4.6223   32.3705 S   0  0  0  0  0  0  0  0  0  0  0  0
    0.4319   -5.7887   33.2247 C   0  0  0  0  0  0  0  0  0  0  0  0
    0.3766   -5.7890   34.5723 C   0  0  0  0  0  0  0  0  0  0  0  0
   -0.4313   -6.7875   35.2561 C   0  0  0  0  0  0  0  0  0  0  0  0
   -1.1359   -7.7075   34.5721 C   0  0  0  0  0  0  0  0  0  0  0  0
   -1.0850   -7.7199   33.1521 C   0  0  0  0  0  0  0  0  0  0  0  0
   -1.6416   -8.4892   32.2396 N   0  0  0  0  0  0  0  0  0  0  0  0
   -1.2141   -8.0702   31.0036 N   0  0  0  0  0  0  0  0  0  0  0  0
   -0.4001   -7.0584   31.1950 C   0  0  0  0  0  0  0  0  0  0  0  0
   -0.2938   -6.7671   32.5306 N   0  0  0  0  0  0  0  0  0  0  0  0
   -1.0578   -3.4430   32.3721 N   0  0  0  0  0  0  0  0  0  0  0  0
   -1.7761   -2.5638   31.6122 N   0  0  0  0  0  0  0  0  0  0  0  0
   -1.0768   -2.2818   30.5294 C   0  0  0  0  0  0  0  0  0  0  0  0
   -1.5010   -1.3575   29.5007 C   0  0  0  0  0  0  0  0  0  0  0  0
   -1.7848   -0.0306   29.7741 C   0  0  0  0  0  0  0  0  0  0  0  0
   -2.2005    0.7876   28.7277 C   0  0  0  0  0  0  0  0  0  0  0  0
   -2.3545    0.2751   27.4615 C   0  0  0  0  0  0  0  0  0  0  0  0
   -2.1353   -1.0010   27.1929 N   0  0  0  0  0  0  0  0  0  0  0  0
   -1.6946   -1.7738   28.2023 C   0  0  0  0  0  0  0  0  0  0  0  0
    0.2860    6.3442   25.8278 H   0  0  0  0  0  0  0  0  0  0  0  0
    1.2837    8.6574   25.1314 H   0  0  0  0  0  0  0  0  0  0  0  0
    3.3226    9.7341   24.6352 H   0  0  0  0  0  0  0  0  0  0  0  0
    6.8747    6.9894   26.0306 H   0  0  0  0  0  0  0  0  0  0  0  0
    7.0330    4.6587   26.8491 H   0  0  0  0  0  0  0  0  0  0  0  0
    4.9654    3.3111   27.1458 H   0  0  0  0  0  0  0  0  0  0  0  0
    2.8074    4.2957   26.6565 H   0  0  0  0  0  0  0  0  0  0  0  0
   -3.2958    4.2987   26.2351 H   0  0  0  0  0  0  0  0  0  0  0  0
    1.4015    2.5945   27.0734 H   0  0  0  0  0  0  0  0  0  0  0  0
    0.1665    1.3836   27.2707 H   0  0  0  0  0  0  0  0  0  0  0  0
    0.1724    1.6231   29.5276 H   0  0  0  0  0  0  0  0  0  0  0  0
    2.3685    1.7704   30.3864 H   0  0  0  0  0  0  0  0  0  0  0  0
    2.9158    2.3160   28.8364 H   0  0  0  0  0  0  0  0  0  0  0  0
    2.6265    0.1894   27.9377 H   0  0  0  0  0  0  0  0  0  0  0  0
    1.5383   -0.6082   30.5455 H   0  0  0  0  0  0  0  0  0  0  0  0
    2.1494   -2.1124   27.9415 H   0  0  0  0  0  0  0  0  0  0  0  0
    0.4772   -3.6673   28.6567 H   0  0  0  0  0  0  0  0  0  0  0  0
    1.7955   -3.9488   29.7615 H   0  0  0  0  0  0  0  0  0  0  0  0
    0.8971   -5.0570   35.1826 H   0  0  0  0  0  0  0  0  0  0  0  0
   -0.4573   -6.7702   36.3425 H   0  0  0  0  0  0  0  0  0  0  0  0
   -1.7288   -8.4573   35.0844 H   0  0  0  0  0  0  0  0  0  0  0  0
    0.1193   -6.5171   30.4205 H   0  0  0  0  0  0  0  0  0  0  0  0
   -1.7009    0.3618   30.7823 H   0  0  0  0  0  0  0  0  0  0  0  0
   -2.4807    1.8147   28.8535 H   0  0  0  0  0  0  0  0  0  0  0  0
   -2.7167    0.8758   26.6357 H   0  0  0  0  0  0  0  0  0  0  0  0
   -1.4809   -2.7909   27.9218 H   0  0  0  0  0  0  0  0  0  0  0  0
  1  2  2  0
  2  3  1  0
  3  4  1  0
  4  5  2  0
  5  6  1  0
  6  7  1  0
  7  8  2  0
  7  9  1  0
  9 10  2  0
 10 11  1  0
 11 12  2  0
 12 13  1  0
 13 14  2  0
  2 15  1  0
 15 16  1  0
 16 17  2  0
 17 18  1  0
 18 19  1  0
 19 20  1  0
 20 21  1  0
 21 22  1  0
 22 23  1  0
 23 24  1  0
 24 25  2  3
 25 26  1  0
 26 27  1  0
 27 28  1  0
 28 29  1  0
 29 30  1  0
 30 31  2  0
 31 32  1  0
 32 33  2  0
 33 34  1  0
 34 35  2  0
 35 36  1  0
 36 37  2  0
 37 38  1  0
 28 39  2  0
 39 40  1  0
 40 41  2  0
 41 42  1  0
 42 43  2  0
 43 44  1  0
 44 45  2  0
 45 46  1  0
 46 47  2  0
 14  4  1  0
 19 15  2  0
 41 27  1  0
 47 42  1  0
 14  9  1  0
 38 30  1  0
 38 34  1  0
  3 48  1  0
  5 49  1  0
  6 50  1  0
 10 51  1  0
 11 52  1  0
 12 53  1  0
 13 54  1  0
 17 55  1  0
 20 56  1  0
 20 57  1  0
 21 58  1  0
 22 59  1  0
 22 60  1  0
 23 61  1  0
 24 62  1  0
 25 63  1  0
 26 64  1  0
 26 65  1  0
 31 66  1  0
 32 67  1  0
 33 68  1  0
 37 69  1  0
 43 70  1  0
 44 71  1  0
 45 72  1  0
 47 73  1  0
M  END
>  <Energy>  (1142) 
94.951421083129105

>  <compound_id>  (1142) 
4541

>  <target_id>  (1142) 
1

>  <reference_id>  (1142) 
162

>  <inspiration_ids>  (1142) 
[162, 53]

>  <energy_score>  (1142) 
-58.606332195639425

>  <distance_score>  (1142) 
1.3315264182401376

>  <path>  (1142) 
/opt/xchem-fragalysis-2/maxwin/BulkDock/SCRATCH/505735/C4541-P162/C4541-P162.minimised.mol

>  <scratch_subdir>  (1142) 
/opt/xchem-fragalysis-2/maxwin/BulkDock/SCRATCH/505735/C4541-P162

>  <fragmenstein_runtime>  (1142) 
9.59088134765625

>  <fragmenstein_outcome>  (1142) 
too moved

>  <fragmenstein_mode>  (1142) 
expansion

>  <fragmenstein_error>  (1142) 


$$$$
C4541-P53
     RDKit          3D

 73 79  0  0  0  0  0  0  0  0999 V2000
    3.8889    1.3360   28.1955 O   0  0  0  0  0  0  0  0  0  0  0  0
    4.1117    0.9256   27.1234 C   0  0  0  0  0  0  0  0  0  0  0  0
    3.8606    1.5609   25.7329 N   0  0  0  0  0  0  0  0  0  0  0  0
    3.3948    2.8084   25.3921 C   0  0  0  0  0  0  0  0  0  0  0  0
    2.9140    2.9782   24.1495 C   0  0  0  0  0  0  0  0  0  0  0  0
    2.3660    4.1488   23.7063 N   0  0  0  0  0  0  0  0  0  0  0  0
    2.2423    5.2800   24.4741 C   0  0  0  0  0  0  0  0  0  0  0  0
    1.7061    6.2929   24.0426 O   0  0  0  0  0  0  0  0  0  0  0  0
    2.8538    5.2125   25.8243 C   0  0  0  0  0  0  0  0  0  0  0  0
    2.9078    6.3769   26.5948 C   0  0  0  0  0  0  0  0  0  0  0  0
    3.5814    6.3716   27.8093 C   0  0  0  0  0  0  0  0  0  0  0  0
    4.2438    5.2287   28.2242 C   0  0  0  0  0  0  0  0  0  0  0  0
    4.2167    4.0836   27.4331 C   0  0  0  0  0  0  0  0  0  0  0  0
    3.4580    4.0163   26.2575 C   0  0  0  0  0  0  0  0  0  0  0  0
    4.8218   -0.3366   26.9455 C   0  0  0  0  0  0  0  0  0  0  0  0
    4.6909   -1.1635   25.8463 N   0  0  0  0  0  0  0  0  0  0  0  0
    5.5400   -2.1349   26.0915 C   0  0  0  0  0  0  0  0  0  0  0  0
    6.2485   -2.0117   27.2480 O   0  0  0  0  0  0  0  0  0  0  0  0
    5.8046   -0.8305   27.7839 C   0  0  0  0  0  0  0  0  0  0  0  0
    6.4952   -0.3214   29.0014 C   0  0  0  0  0  0  0  0  0  0  0  0
    5.6109    0.0767   30.0925 N   0  0  0  0  0  0  0  0  0  0  0  0
    5.1133   -1.0418   30.8642 C   0  0  0  0  0  0  0  0  0  0  0  0
    4.3270   -2.0576   30.2139 N   0  0  0  0  0  0  0  0  0  0  0  0
    2.9764   -2.0135   29.9920 C   0  0  0  0  0  0  0  0  0  0  0  0
    2.3453   -2.8093   29.1226 C   0  0  0  0  0  0  0  0  0  0  0  0
    0.8755   -2.9611   28.9090 C   0  0  0  0  0  0  0  0  0  0  0  0
    0.0084   -2.7475   30.0562 N   0  0  0  0  0  0  0  0  0  0  0  0
   -0.0841   -3.4900   31.2043 C   0  0  0  0  0  0  0  0  0  0  0  0
    1.2237   -4.4348   31.8420 S   0  0  0  0  0  0  0  0  0  0  0  0
    0.3263   -5.5105   32.8490 C   0  0  0  0  0  0  0  0  0  0  0  0
    0.3129   -5.3714   34.1906 C   0  0  0  0  0  0  0  0  0  0  0  0
   -0.4285   -6.3247   35.0016 C   0  0  0  0  0  0  0  0  0  0  0  0
   -1.1073   -7.3393   34.4363 C   0  0  0  0  0  0  0  0  0  0  0  0
   -1.1007   -7.4951   33.0231 C   0  0  0  0  0  0  0  0  0  0  0  0
   -1.6751   -8.3559   32.2082 N   0  0  0  0  0  0  0  0  0  0  0  0
   -1.2970   -8.0523   30.9247 N   0  0  0  0  0  0  0  0  0  0  0  0
   -0.5097   -7.0052   30.9884 C   0  0  0  0  0  0  0  0  0  0  0  0
   -0.3705   -6.5828   32.2841 N   0  0  0  0  0  0  0  0  0  0  0  0
   -1.2657   -3.3063   31.7484 N   0  0  0  0  0  0  0  0  0  0  0  0
   -1.9010   -2.3141   31.0335 N   0  0  0  0  0  0  0  0  0  0  0  0
   -1.0946   -1.9209   30.0629 C   0  0  0  0  0  0  0  0  0  0  0  0
   -1.2659   -0.7809   29.1780 C   0  0  0  0  0  0  0  0  0  0  0  0
   -0.5963    0.4185   29.4334 C   0  0  0  0  0  0  0  0  0  0  0  0
   -0.7573    1.5006   28.5696 C   0  0  0  0  0  0  0  0  0  0  0  0
   -1.5892    1.3497   27.4747 C   0  0  0  0  0  0  0  0  0  0  0  0
   -2.2259    0.1999   27.1817 N   0  0  0  0  0  0  0  0  0  0  0  0
   -2.0521   -0.8376   28.0371 C   0  0  0  0  0  0  0  0  0  0  0  0
    4.1014    0.8873   25.0010 H   0  0  0  0  0  0  0  0  0  0  0  0
    2.9190    2.1721   23.4268 H   0  0  0  0  0  0  0  0  0  0  0  0
    1.9722    4.2105   22.7741 H   0  0  0  0  0  0  0  0  0  0  0  0
    2.4279    7.2892   26.2460 H   0  0  0  0  0  0  0  0  0  0  0  0
    3.6128    7.2732   28.4163 H   0  0  0  0  0  0  0  0  0  0  0  0
    4.8134    5.2351   29.1505 H   0  0  0  0  0  0  0  0  0  0  0  0
    4.8452    3.2667   27.7598 H   0  0  0  0  0  0  0  0  0  0  0  0
    5.7500   -3.0054   25.4852 H   0  0  0  0  0  0  0  0  0  0  0  0
    7.0662    0.5665   28.7032 H   0  0  0  0  0  0  0  0  0  0  0  0
    7.2402   -1.0453   29.3537 H   0  0  0  0  0  0  0  0  0  0  0  0
    4.8076    0.5871   29.7114 H   0  0  0  0  0  0  0  0  0  0  0  0
    4.5352   -0.6316   31.7019 H   0  0  0  0  0  0  0  0  0  0  0  0
    5.9660   -1.5390   31.3434 H   0  0  0  0  0  0  0  0  0  0  0  0
    4.8559   -2.6335   29.5660 H   0  0  0  0  0  0  0  0  0  0  0  0
    2.4415   -1.3067   30.6242 H   0  0  0  0  0  0  0  0  0  0  0  0
    2.9492   -3.4777   28.5122 H   0  0  0  0  0  0  0  0  0  0  0  0
    0.5642   -2.3180   28.0816 H   0  0  0  0  0  0  0  0  0  0  0  0
    0.6758   -3.9914   28.5942 H   0  0  0  0  0  0  0  0  0  0  0  0
    0.8295   -4.5636   34.7002 H   0  0  0  0  0  0  0  0  0  0  0  0
   -0.4227   -6.1886   36.0791 H   0  0  0  0  0  0  0  0  0  0  0  0
   -1.6544   -8.0560   35.0343 H   0  0  0  0  0  0  0  0  0  0  0  0
   -0.0369   -6.5181   30.1519 H   0  0  0  0  0  0  0  0  0  0  0  0
    0.0409    0.5251   30.3072 H   0  0  0  0  0  0  0  0  0  0  0  0
   -0.2650    2.4493   28.7573 H   0  0  0  0  0  0  0  0  0  0  0  0
   -1.7742    2.1730   26.7903 H   0  0  0  0  0  0  0  0  0  0  0  0
   -2.5889   -1.7371   27.7597 H   0  0  0  0  0  0  0  0  0  0  0  0
  1  2  2  0
  2  3  1  0
  3  4  1  0
  4  5  2  0
  5  6  1  0
  6  7  1  0
  7  8  2  0
  7  9  1  0
  9 10  2  0
 10 11  1  0
 11 12  2  0
 12 13  1  0
 13 14  2  0
  2 15  1  0
 15 16  1  0
 16 17  2  0
 17 18  1  0
 18 19  1  0
 19 20  1  0
 20 21  1  0
 21 22  1  0
 22 23  1  0
 23 24  1  0
 24 25  2  3
 25 26  1  0
 26 27  1  0
 27 28  1  0
 28 29  1  0
 29 30  1  0
 30 31  2  0
 31 32  1  0
 32 33  2  0
 33 34  1  0
 34 35  2  0
 35 36  1  0
 36 37  2  0
 37 38  1  0
 28 39  2  0
 39 40  1  0
 40 41  2  0
 41 42  1  0
 42 43  2  0
 43 44  1  0
 44 45  2  0
 45 46  1  0
 46 47  2  0
 14  4  1  0
 19 15  2  0
 41 27  1  0
 47 42  1  0
 14  9  1  0
 38 30  1  0
 38 34  1  0
  3 48  1  0
  5 49  1  0
  6 50  1  0
 10 51  1  0
 11 52  1  0
 12 53  1  0
 13 54  1  0
 17 55  1  0
 20 56  1  0
 20 57  1  0
 21 58  1  0
 22 59  1  0
 22 60  1  0
 23 61  1  0
 24 62  1  0
 25 63  1  0
 26 64  1  0
 26 65  1  0
 31 66  1  0
 32 67  1  0
 33 68  1  0
 37 69  1  0
 43 70  1  0
 44 71  1  0
 45 72  1  0
 47 73  1  0
M  END
>  <Energy>  (1143) 
77.989498531573076

>  <compound_id>  (1143) 
4541

>  <target_id>  (1143) 
1

>  <reference_id>  (1143) 
53

>  <inspiration_ids>  (1143) 
[162, 53]

>  <energy_score>  (1143) 
-75.56825474719591

>  <distance_score>  (1143) 
2.4456827428998826

>  <path>  (1143) 
/opt/xchem-fragalysis-2/maxwin/BulkDock/SCRATCH/505735/C4541-P53/C4541-P53.minimised.mol

>  <scratch_subdir>  (1143) 
/opt/xchem-fragalysis-2/maxwin/BulkDock/SCRATCH/505735/C4541-P53

>  <fragmenstein_runtime>  (1143) 
10.58977460861206

>  <fragmenstein_outcome>  (1143) 
too moved

>  <fragmenstein_mode>  (1143) 
expansion

>  <fragmenstein_error>  (1143) 


$$$$
C4542-P162
     RDKit          3D

 50 54  0  0  0  0  0  0  0  0999 V2000
    2.6686   -1.4755   30.3468 C   0  0  0  0  0  0  0  0  0  0  0  0
    2.4037   -1.9951   29.1410 C   0  0  0  0  0  0  0  0  0  0  0  0
    1.1339   -2.6287   28.6523 C   0  0  0  0  0  0  0  0  0  0  0  0
    0.0729   -2.7780   29.6242 N   0  0  0  0  0  0  0  0  0  0  0  0
   -0.0622   -3.7620   30.5513 C   0  0  0  0  0  0  0  0  0  0  0  0
    1.2123   -4.8861   30.9364 S   0  0  0  0  0  0  0  0  0  0  0  0
    0.6375   -5.1888   32.5283 C   0  0  0  0  0  0  0  0  0  0  0  0
    0.7240   -4.2228   33.4587 C   0  0  0  0  0  0  0  0  0  0  0  0
   -0.1547   -4.2852   34.6026 C   0  0  0  0  0  0  0  0  0  0  0  0
   -0.5213   -3.0012   35.0325 O   0  0  0  0  0  0  0  0  0  0  0  0
   -1.8714   -2.6891   34.5709 C   0  0  0  0  0  0  0  0  0  0  0  0
   -2.1960   -1.2625   34.3940 N   0  0  0  0  0  0  0  0  0  0  0  0
   -3.5162   -0.9623   34.5921 C   0  0  0  0  0  0  0  0  0  0  0  0
   -4.3201   -1.1953   35.7341 C   0  0  0  0  0  0  0  0  0  0  0  0
   -5.6011   -0.8532   35.5442 N   0  0  0  0  0  0  0  0  0  0  0  0
   -5.5996   -0.3437   34.2980 N   0  0  0  0  0  0  0  0  0  0  0  0
   -4.3763   -0.4072   33.6822 C   0  0  0  0  0  0  0  0  0  0  0  0
   -0.7144   -5.4657   34.9757 C   0  0  0  0  0  0  0  0  0  0  0  0
   -0.7320   -6.5457   34.0224 C   0  0  0  0  0  0  0  0  0  0  0  0
   -1.3886   -7.6872   33.9586 N   0  0  0  0  0  0  0  0  0  0  0  0
   -1.2493   -8.2003   32.6835 N   0  0  0  0  0  0  0  0  0  0  0  0
   -0.4935   -7.3733   32.0067 C   0  0  0  0  0  0  0  0  0  0  0  0
   -0.1214   -6.3219   32.7989 N   0  0  0  0  0  0  0  0  0  0  0  0
   -1.2282   -3.6492   31.1513 N   0  0  0  0  0  0  0  0  0  0  0  0
   -1.8442   -2.5253   30.6568 N   0  0  0  0  0  0  0  0  0  0  0  0
   -1.0541   -1.9979   29.7389 C   0  0  0  0  0  0  0  0  0  0  0  0
   -1.2861   -0.7879   28.9783 C   0  0  0  0  0  0  0  0  0  0  0  0
   -0.6387    0.4044   29.3077 C   0  0  0  0  0  0  0  0  0  0  0  0
   -0.8377    1.5351   28.5201 C   0  0  0  0  0  0  0  0  0  0  0  0
   -1.7041    1.4445   27.4453 C   0  0  0  0  0  0  0  0  0  0  0  0
   -2.3318    0.3066   27.0934 N   0  0  0  0  0  0  0  0  0  0  0  0
   -2.1050   -0.7886   27.8597 C   0  0  0  0  0  0  0  0  0  0  0  0
    1.9458   -1.4539   31.1560 H   0  0  0  0  0  0  0  0  0  0  0  0
    3.6426   -1.0384   30.5540 H   0  0  0  0  0  0  0  0  0  0  0  0
    3.1962   -1.9519   28.3934 H   0  0  0  0  0  0  0  0  0  0  0  0
    0.7511   -2.0243   27.8285 H   0  0  0  0  0  0  0  0  0  0  0  0
    1.3515   -3.6234   28.2486 H   0  0  0  0  0  0  0  0  0  0  0  0
    1.2502   -3.2875   33.2906 H   0  0  0  0  0  0  0  0  0  0  0  0
   -2.0567   -3.1618   33.6023 H   0  0  0  0  0  0  0  0  0  0  0  0
   -2.5010   -3.0730   35.3739 H   0  0  0  0  0  0  0  0  0  0  0  0
   -1.8024   -0.9712   33.5025 H   0  0  0  0  0  0  0  0  0  0  0  0
   -4.0239   -1.6162   36.6857 H   0  0  0  0  0  0  0  0  0  0  0  0
   -6.4719    0.0232   33.9245 H   0  0  0  0  0  0  0  0  0  0  0  0
   -4.2464   -0.0940   32.6595 H   0  0  0  0  0  0  0  0  0  0  0  0
   -1.3830   -5.5299   35.8260 H   0  0  0  0  0  0  0  0  0  0  0  0
   -0.1997   -7.4901   30.9744 H   0  0  0  0  0  0  0  0  0  0  0  0
    0.0247    0.4598   30.1663 H   0  0  0  0  0  0  0  0  0  0  0  0
   -0.3478    2.4753   28.7509 H   0  0  0  0  0  0  0  0  0  0  0  0
   -1.9249    2.3092   26.8253 H   0  0  0  0  0  0  0  0  0  0  0  0
   -2.6125   -1.6907   27.5258 H   0  0  0  0  0  0  0  0  0  0  0  0
  1  2  2  0
  2  3  1  0
  3  4  1  0
  4  5  1  0
  5  6  1  0
  6  7  1  0
  7  8  2  0
  8  9  1  0
  9 10  1  0
 10 11  1  0
 11 12  1  0
 12 13  1  0
 13 14  1  0
 14 15  2  0
 15 16  1  0
 16 17  1  0
  9 18  2  0
 18 19  1  0
 19 20  2  0
 20 21  1  0
 21 22  2  0
 22 23  1  0
  5 24  2  0
 24 25  1  0
 25 26  2  0
 26 27  1  0
 27 28  2  0
 28 29  1  0
 29 30  2  0
 30 31  1  0
 31 32  2  0
 26  4  1  0
 32 27  1  0
 23  7  1  0
 17 13  2  0
 23 19  1  0
  1 33  1  0
  1 34  1  0
  2 35  1  0
  3 36  1  0
  3 37  1  0
  8 38  1  0
 11 39  1  0
 11 40  1  0
 12 41  1  0
 14 42  1  0
 16 43  1  0
 17 44  1  0
 18 45  1  0
 22 46  1  0
 28 47  1  0
 29 48  1  0
 30 49  1  0
 32 50  1  0
M  END
>  <Energy>  (1144) 
69.152967073315111

>  <compound_id>  (1144) 
4542

>  <target_id>  (1144) 
1

>  <reference_id>  (1144) 
162

>  <inspiration_ids>  (1144) 
[162, 59]

>  <energy_score>  (1144) 
-25.538777734702023

>  <distance_score>  (1144) 
1.502461910706871

>  <path>  (1144) 
/opt/xchem-fragalysis-2/maxwin/BulkDock/SCRATCH/505735/C4542-P162/C4542-P162.minimised.mol

>  <scratch_subdir>  (1144) 
/opt/xchem-fragalysis-2/maxwin/BulkDock/SCRATCH/505735/C4542-P162

>  <fragmenstein_runtime>  (1144) 
3.324018955230713

>  <fragmenstein_outcome>  (1144) 
too moved

>  <fragmenstein_mode>  (1144) 
expansion

>  <fragmenstein_error>  (1144) 


$$$$
C4542-P59
     RDKit          3D

 50 54  0  0  0  0  0  0  0  0999 V2000
    2.7084   -1.4116   30.2091 C   0  0  0  0  0  0  0  0  0  0  0  0
    2.4371   -1.9963   29.0346 C   0  0  0  0  0  0  0  0  0  0  0  0
    1.1639   -2.6532   28.5855 C   0  0  0  0  0  0  0  0  0  0  0  0
    0.1105   -2.7494   29.5711 N   0  0  0  0  0  0  0  0  0  0  0  0
   -0.0148   -3.6787   30.5553 C   0  0  0  0  0  0  0  0  0  0  0  0
    1.2839   -4.7280   31.0651 S   0  0  0  0  0  0  0  0  0  0  0  0
    0.5341   -5.1382   32.5606 C   0  0  0  0  0  0  0  0  0  0  0  0
    0.4340   -4.2104   33.5304 C   0  0  0  0  0  0  0  0  0  0  0  0
   -0.6010   -4.3686   34.5319 C   0  0  0  0  0  0  0  0  0  0  0  0
   -1.1616   -3.1782   35.0259 O   0  0  0  0  0  0  0  0  0  0  0  0
   -1.7604   -2.3398   33.9659 C   0  0  0  0  0  0  0  0  0  0  0  0
   -2.3427   -1.0964   34.4835 N   0  0  0  0  0  0  0  0  0  0  0  0
   -3.6724   -0.8810   34.6224 C   0  0  0  0  0  0  0  0  0  0  0  0
   -4.7222   -1.7636   34.9191 C   0  0  0  0  0  0  0  0  0  0  0  0
   -5.9181   -1.1683   35.0040 N   0  0  0  0  0  0  0  0  0  0  0  0
   -5.6316    0.1153   34.7373 N   0  0  0  0  0  0  0  0  0  0  0  0
   -4.2906    0.3429   34.5609 C   0  0  0  0  0  0  0  0  0  0  0  0
   -1.0887   -5.6034   34.8033 C   0  0  0  0  0  0  0  0  0  0  0  0
   -0.9493   -6.6212   33.8002 C   0  0  0  0  0  0  0  0  0  0  0  0
   -1.5748   -7.7595   33.5867 N   0  0  0  0  0  0  0  0  0  0  0  0
   -1.2487   -8.2099   32.3230 N   0  0  0  0  0  0  0  0  0  0  0  0
   -0.4070   -7.3499   31.8065 C   0  0  0  0  0  0  0  0  0  0  0  0
   -0.1928   -6.3184   32.6808 N   0  0  0  0  0  0  0  0  0  0  0  0
   -1.2025   -3.5704   31.1113 N   0  0  0  0  0  0  0  0  0  0  0  0
   -1.8274   -2.4831   30.5567 N   0  0  0  0  0  0  0  0  0  0  0  0
   -1.0223   -1.9702   29.6438 C   0  0  0  0  0  0  0  0  0  0  0  0
   -1.2385   -0.7592   28.8766 C   0  0  0  0  0  0  0  0  0  0  0  0
   -0.5910    0.4300   29.2188 C   0  0  0  0  0  0  0  0  0  0  0  0
   -0.8006    1.5752   28.4538 C   0  0  0  0  0  0  0  0  0  0  0  0
   -1.6695    1.4996   27.3800 C   0  0  0  0  0  0  0  0  0  0  0  0
   -2.2921    0.3652   27.0106 N   0  0  0  0  0  0  0  0  0  0  0  0
   -2.0633   -0.7397   27.7625 C   0  0  0  0  0  0  0  0  0  0  0  0
    1.9884   -1.3422   31.0179 H   0  0  0  0  0  0  0  0  0  0  0  0
    3.6855   -0.9697   30.3894 H   0  0  0  0  0  0  0  0  0  0  0  0
    3.2287   -2.0012   28.2851 H   0  0  0  0  0  0  0  0  0  0  0  0
    0.7741   -2.0973   27.7303 H   0  0  0  0  0  0  0  0  0  0  0  0
    1.3775   -3.6684   28.2328 H   0  0  0  0  0  0  0  0  0  0  0  0
    0.9496   -3.2564   33.4837 H   0  0  0  0  0  0  0  0  0  0  0  0
   -0.9534   -2.0239   33.2969 H   0  0  0  0  0  0  0  0  0  0  0  0
   -2.4800   -2.8975   33.3647 H   0  0  0  0  0  0  0  0  0  0  0  0
   -1.7244   -0.3052   34.3503 H   0  0  0  0  0  0  0  0  0  0  0  0
   -4.6708   -2.8157   35.1057 H   0  0  0  0  0  0  0  0  0  0  0  0
   -6.3992    0.7820   34.6874 H   0  0  0  0  0  0  0  0  0  0  0  0
   -3.9153    1.3418   34.4065 H   0  0  0  0  0  0  0  0  0  0  0  0
   -1.8259   -5.7514   35.5807 H   0  0  0  0  0  0  0  0  0  0  0  0
    0.0485   -7.4234   30.8304 H   0  0  0  0  0  0  0  0  0  0  0  0
    0.0682    0.4774   30.0806 H   0  0  0  0  0  0  0  0  0  0  0  0
   -0.3252    2.5173   28.7060 H   0  0  0  0  0  0  0  0  0  0  0  0
   -1.8987    2.3742   26.7772 H   0  0  0  0  0  0  0  0  0  0  0  0
   -2.5818   -1.6296   27.4201 H   0  0  0  0  0  0  0  0  0  0  0  0
  1  2  2  0
  2  3  1  0
  3  4  1  0
  4  5  1  0
  5  6  1  0
  6  7  1  0
  7  8  2  0
  8  9  1  0
  9 10  1  0
 10 11  1  0
 11 12  1  0
 12 13  1  0
 13 14  1  0
 14 15  2  0
 15 16  1  0
 16 17  1  0
  9 18  2  0
 18 19  1  0
 19 20  2  0
 20 21  1  0
 21 22  2  0
 22 23  1  0
  5 24  2  0
 24 25  1  0
 25 26  2  0
 26 27  1  0
 27 28  2  0
 28 29  1  0
 29 30  2  0
 30 31  1  0
 31 32  2  0
 26  4  1  0
 32 27  1  0
 23  7  1  0
 17 13  2  0
 23 19  1  0
  1 33  1  0
  1 34  1  0
  2 35  1  0
  3 36  1  0
  3 37  1  0
  8 38  1  0
 11 39  1  0
 11 40  1  0
 12 41  1  0
 14 42  1  0
 16 43  1  0
 17 44  1  0
 18 45  1  0
 22 46  1  0
 28 47  1  0
 29 48  1  0
 30 49  1  0
 32 50  1  0
M  END
>  <Energy>  (1145) 
68.946206280290284

>  <compound_id>  (1145) 
4542

>  <target_id>  (1145) 
1

>  <reference_id>  (1145) 
59

>  <inspiration_ids>  (1145) 
[162, 59]

>  <energy_score>  (1145) 
-25.745538527727035

>  <distance_score>  (1145) 
1.3061990368839411

>  <path>  (1145) 
/opt/xchem-fragalysis-2/maxwin/BulkDock/SCRATCH/505735/C4542-P59/C4542-P59.minimised.mol

>  <scratch_subdir>  (1145) 
/opt/xchem-fragalysis-2/maxwin/BulkDock/SCRATCH/505735/C4542-P59

>  <fragmenstein_runtime>  (1145) 
2.9862329959869385

>  <fragmenstein_outcome>  (1145) 
too moved

>  <fragmenstein_mode>  (1145) 
expansion

>  <fragmenstein_error>  (1145) 


$$$$
C2341-P162
     RDKit          3D

 48 52  0  0  0  0  0  0  0  0999 V2000
    2.4864   -2.7878   28.8812 C   0  0  0  0  0  0  0  0  0  0  0  0
    1.1893   -2.4662   28.7947 C   0  0  0  0  0  0  0  0  0  0  0  0
    0.0673   -3.3022   29.3204 C   0  0  0  0  0  0  0  0  0  0  0  0
   -0.8990   -2.6042   30.1674 N   0  0  0  0  0  0  0  0  0  0  0  0
   -1.4081   -3.0820   31.3551 C   0  0  0  0  0  0  0  0  0  0  0  0
   -0.6565   -3.0427   32.8844 S   0  0  0  0  0  0  0  0  0  0  0  0
    0.6589   -4.0972   32.7129 C   0  0  0  0  0  0  0  0  0  0  0  0
    1.9064   -3.6002   32.8998 C   0  0  0  0  0  0  0  0  0  0  0  0
    2.4366   -2.3098   32.1371 C   0  0  0  0  0  0  0  0  0  0  0  0
    3.5133   -2.3816   31.6720 O   0  0  0  0  0  0  0  0  0  0  0  0
    1.3639   -1.1663   32.0463 N   0  0  0  0  0  0  0  0  0  0  0  0
    1.3674    0.0253   31.3148 C   0  0  0  0  0  0  0  0  0  0  0  0
    0.4716    1.1278   31.4444 C   0  0  0  0  0  0  0  0  0  0  0  0
    0.6499    2.0837   30.5320 N   0  0  0  0  0  0  0  0  0  0  0  0
    1.5756    1.5555   29.7158 N   0  0  0  0  0  0  0  0  0  0  0  0
    2.0953    0.3828   30.2001 C   0  0  0  0  0  0  0  0  0  0  0  0
    2.8502   -4.5535   33.5218 C   0  0  0  0  0  0  0  0  0  0  0  0
    2.5203   -5.8237   33.8551 C   0  0  0  0  0  0  0  0  0  0  0  0
    1.2715   -6.3511   33.4564 C   0  0  0  0  0  0  0  0  0  0  0  0
    0.7490   -7.5555   33.4691 N   0  0  0  0  0  0  0  0  0  0  0  0
   -0.4314   -7.5139   32.7714 N   0  0  0  0  0  0  0  0  0  0  0  0
   -0.6219   -6.2653   32.4284 C   0  0  0  0  0  0  0  0  0  0  0  0
    0.3962   -5.4677   32.8791 N   0  0  0  0  0  0  0  0  0  0  0  0
   -2.7049   -2.9451   31.3744 N   0  0  0  0  0  0  0  0  0  0  0  0
   -3.0007   -2.0475   30.4126 N   0  0  0  0  0  0  0  0  0  0  0  0
   -1.9282   -1.8138   29.6858 C   0  0  0  0  0  0  0  0  0  0  0  0
   -1.8652   -0.7855   28.6746 C   0  0  0  0  0  0  0  0  0  0  0  0
   -1.6164    0.5278   29.0446 C   0  0  0  0  0  0  0  0  0  0  0  0
   -1.6267    1.5639   28.1158 C   0  0  0  0  0  0  0  0  0  0  0  0
   -2.0184    1.2682   26.8397 C   0  0  0  0  0  0  0  0  0  0  0  0
   -2.3321    0.0234   26.4525 N   0  0  0  0  0  0  0  0  0  0  0  0
   -2.2457   -0.9765   27.3694 C   0  0  0  0  0  0  0  0  0  0  0  0
    3.2488   -2.1525   28.4385 H   0  0  0  0  0  0  0  0  0  0  0  0
    2.8342   -3.6867   29.3802 H   0  0  0  0  0  0  0  0  0  0  0  0
    0.9178   -1.5671   28.2431 H   0  0  0  0  0  0  0  0  0  0  0  0
    0.4412   -4.1642   29.8821 H   0  0  0  0  0  0  0  0  0  0  0  0
   -0.5037   -3.7012   28.4765 H   0  0  0  0  0  0  0  0  0  0  0  0
    0.5732   -1.3956   32.6357 H   0  0  0  0  0  0  0  0  0  0  0  0
   -0.2911    1.2666   32.1997 H   0  0  0  0  0  0  0  0  0  0  0  0
    1.8600    2.0793   28.8933 H   0  0  0  0  0  0  0  0  0  0  0  0
    2.9076   -0.1050   29.6839 H   0  0  0  0  0  0  0  0  0  0  0  0
    3.8388   -4.1637   33.7596 H   0  0  0  0  0  0  0  0  0  0  0  0
    3.2312   -6.4736   34.3543 H   0  0  0  0  0  0  0  0  0  0  0  0
   -1.4218   -5.9018   31.8213 H   0  0  0  0  0  0  0  0  0  0  0  0
   -1.4908    0.7633   30.0893 H   0  0  0  0  0  0  0  0  0  0  0  0
   -1.4015    2.5873   28.3890 H   0  0  0  0  0  0  0  0  0  0  0  0
   -2.1191    2.0425   26.0868 H   0  0  0  0  0  0  0  0  0  0  0  0
   -2.5597   -1.9459   27.0015 H   0  0  0  0  0  0  0  0  0  0  0  0
  1  2  2  0
  2  3  1  0
  3  4  1  0
  4  5  1  0
  5  6  1  0
  6  7  1  0
  7  8  2  0
  8  9  1  0
  9 10  2  0
  9 11  1  0
 11 12  1  0
 12 13  1  0
 13 14  2  0
 14 15  1  0
 15 16  1  0
  8 17  1  0
 17 18  2  0
 18 19  1  0
 19 20  2  0
 20 21  1  0
 21 22  2  0
 22 23  1  0
  5 24  2  0
 24 25  1  0
 25 26  2  0
 26 27  1  0
 27 28  2  0
 28 29  1  0
 29 30  2  0
 30 31  1  0
 31 32  2  0
 26  4  1  0
 32 27  1  0
 23  7  1  0
 16 12  2  0
 23 19  1  0
  1 33  1  0
  1 34  1  0
  2 35  1  0
  3 36  1  0
  3 37  1  0
 11 38  1  0
 13 39  1  0
 15 40  1  0
 16 41  1  0
 17 42  1  0
 18 43  1  0
 22 44  1  0
 28 45  1  0
 29 46  1  0
 30 47  1  0
 32 48  1  0
M  END
>  <Energy>  (1146) 
145.33218686586437

>  <compound_id>  (1146) 
2341

>  <target_id>  (1146) 
1

>  <reference_id>  (1146) 
162

>  <inspiration_ids>  (1146) 
[162, 70]

>  <energy_score>  (1146) 
9.738634722683003

>  <distance_score>  (1146) 
3.766701660188637

>  <path>  (1146) 
/opt/xchem-fragalysis-2/maxwin/BulkDock/SCRATCH/505735/C2341-P162/C2341-P162.minimised.mol

>  <scratch_subdir>  (1146) 
/opt/xchem-fragalysis-2/maxwin/BulkDock/SCRATCH/505735/C2341-P162

>  <fragmenstein_runtime>  (1146) 
5.2738196849823

>  <fragmenstein_outcome>  (1146) 
too moved

>  <fragmenstein_mode>  (1146) 
expansion

>  <fragmenstein_error>  (1146) 


$$$$
C2341-P70
     RDKit          3D

 48 52  0  0  0  0  0  0  0  0999 V2000
    3.3784   -2.5031   29.3669 C   0  0  0  0  0  0  0  0  0  0  0  0
    2.6570   -2.7075   28.2591 C   0  0  0  0  0  0  0  0  0  0  0  0
    1.2019   -3.0315   28.0852 C   0  0  0  0  0  0  0  0  0  0  0  0
    0.2757   -2.7161   29.1604 N   0  0  0  0  0  0  0  0  0  0  0  0
   -0.1010   -3.5740   30.1582 C   0  0  0  0  0  0  0  0  0  0  0  0
    0.9859   -4.7298   30.8114 S   0  0  0  0  0  0  0  0  0  0  0  0
    0.2177   -5.1246   32.3161 C   0  0  0  0  0  0  0  0  0  0  0  0
    0.0625   -4.3082   33.3999 C   0  0  0  0  0  0  0  0  0  0  0  0
   -0.0708   -2.7591   33.4466 C   0  0  0  0  0  0  0  0  0  0  0  0
   -0.9445   -2.3758   34.1753 O   0  0  0  0  0  0  0  0  0  0  0  0
    0.7855   -2.0401   32.5603 N   0  0  0  0  0  0  0  0  0  0  0  0
    0.8061   -0.7108   32.2067 C   0  0  0  0  0  0  0  0  0  0  0  0
   -0.1594    0.2753   32.5284 C   0  0  0  0  0  0  0  0  0  0  0  0
    0.0847    1.4530   31.9482 N   0  0  0  0  0  0  0  0  0  0  0  0
    1.1881    1.2160   31.2190 N   0  0  0  0  0  0  0  0  0  0  0  0
    1.6799   -0.0557   31.3752 C   0  0  0  0  0  0  0  0  0  0  0  0
   -0.3423   -4.9685   34.6651 C   0  0  0  0  0  0  0  0  0  0  0  0
   -0.7373   -6.2502   34.7405 C   0  0  0  0  0  0  0  0  0  0  0  0
   -0.7834   -7.0230   33.5660 C   0  0  0  0  0  0  0  0  0  0  0  0
   -1.2691   -8.2198   33.3182 N   0  0  0  0  0  0  0  0  0  0  0  0
   -1.1149   -8.4564   31.9768 N   0  0  0  0  0  0  0  0  0  0  0  0
   -0.4738   -7.4294   31.4626 C   0  0  0  0  0  0  0  0  0  0  0  0
   -0.2667   -6.4559   32.4143 N   0  0  0  0  0  0  0  0  0  0  0  0
   -1.2835   -3.2545   30.6124 N   0  0  0  0  0  0  0  0  0  0  0  0
   -1.6139   -2.0606   30.0294 N   0  0  0  0  0  0  0  0  0  0  0  0
   -0.6362   -1.6788   29.2128 C   0  0  0  0  0  0  0  0  0  0  0  0
   -0.5785   -0.3711   28.5476 C   0  0  0  0  0  0  0  0  0  0  0  0
   -1.6539    0.5048   28.6835 C   0  0  0  0  0  0  0  0  0  0  0  0
   -1.6628    1.7528   28.0603 C   0  0  0  0  0  0  0  0  0  0  0  0
   -0.5469    2.1360   27.3537 C   0  0  0  0  0  0  0  0  0  0  0  0
    0.5422    1.3558   27.2364 N   0  0  0  0  0  0  0  0  0  0  0  0
    0.4998    0.1354   27.8368 C   0  0  0  0  0  0  0  0  0  0  0  0
    4.4387   -2.2708   29.2843 H   0  0  0  0  0  0  0  0  0  0  0  0
    2.9722   -2.5636   30.3654 H   0  0  0  0  0  0  0  0  0  0  0  0
    3.1922   -2.6294   27.3071 H   0  0  0  0  0  0  0  0  0  0  0  0
    1.0887   -4.0953   27.8484 H   0  0  0  0  0  0  0  0  0  0  0  0
    0.8406   -2.4890   27.2162 H   0  0  0  0  0  0  0  0  0  0  0  0
    1.4600   -2.6787   32.1659 H   0  0  0  0  0  0  0  0  0  0  0  0
   -1.0374    0.1647   33.1524 H   0  0  0  0  0  0  0  0  0  0  0  0
    1.5560    1.9664   30.6407 H   0  0  0  0  0  0  0  0  0  0  0  0
    2.5793   -0.3461   30.8599 H   0  0  0  0  0  0  0  0  0  0  0  0
   -0.3577   -4.3359   35.5493 H   0  0  0  0  0  0  0  0  0  0  0  0
   -1.0941   -6.6951   35.6568 H   0  0  0  0  0  0  0  0  0  0  0  0
   -0.1676   -7.3367   30.4310 H   0  0  0  0  0  0  0  0  0  0  0  0
   -2.4883    0.2223   29.3162 H   0  0  0  0  0  0  0  0  0  0  0  0
   -2.5110    2.4224   28.1522 H   0  0  0  0  0  0  0  0  0  0  0  0
   -0.4920    3.1072   26.8702 H   0  0  0  0  0  0  0  0  0  0  0  0
    1.4290   -0.4054   27.7142 H   0  0  0  0  0  0  0  0  0  0  0  0
  1  2  2  0
  2  3  1  0
  3  4  1  0
  4  5  1  0
  5  6  1  0
  6  7  1  0
  7  8  2  0
  8  9  1  0
  9 10  2  0
  9 11  1  0
 11 12  1  0
 12 13  1  0
 13 14  2  0
 14 15  1  0
 15 16  1  0
  8 17  1  0
 17 18  2  0
 18 19  1  0
 19 20  2  0
 20 21  1  0
 21 22  2  0
 22 23  1  0
  5 24  2  0
 24 25  1  0
 25 26  2  0
 26 27  1  0
 27 28  2  0
 28 29  1  0
 29 30  2  0
 30 31  1  0
 31 32  2  0
 26  4  1  0
 32 27  1  0
 23  7  1  0
 16 12  2  0
 23 19  1  0
  1 33  1  0
  1 34  1  0
  2 35  1  0
  3 36  1  0
  3 37  1  0
 11 38  1  0
 13 39  1  0
 15 40  1  0
 16 41  1  0
 17 42  1  0
 18 43  1  0
 22 44  1  0
 28 45  1  0
 29 46  1  0
 30 47  1  0
 32 48  1  0
M  END
>  <Energy>  (1147) 
91.099961930488448

>  <compound_id>  (1147) 
2341

>  <target_id>  (1147) 
1

>  <reference_id>  (1147) 
70

>  <inspiration_ids>  (1147) 
[162, 70]

>  <energy_score>  (1147) 
-55.920944434102864

>  <distance_score>  (1147) 
3.927061205708727

>  <path>  (1147) 
/opt/xchem-fragalysis-2/maxwin/BulkDock/SCRATCH/505735/C2341-P70/C2341-P70.minimised.mol

>  <scratch_subdir>  (1147) 
/opt/xchem-fragalysis-2/maxwin/BulkDock/SCRATCH/505735/C2341-P70

>  <fragmenstein_runtime>  (1147) 
8.555696249008179

>  <fragmenstein_outcome>  (1147) 
too moved

>  <fragmenstein_mode>  (1147) 
expansion

>  <fragmenstein_error>  (1147) 


$$$$
C4543-P162
     RDKit          3D

 73 79  0  0  0  0  0  0  0  0999 V2000
    3.1080   -1.8688   28.8559 C   0  0  0  0  0  0  0  0  0  0  0  0
    2.0378   -1.2368   29.3603 C   0  0  0  0  0  0  0  0  0  0  0  0
    1.5234   -1.4162   30.7600 C   0  0  0  0  0  0  0  0  0  0  0  0
    1.3635   -0.1663   31.5148 N   0  0  0  0  0  0  0  0  0  0  0  0
    2.6178    0.4739   31.9843 C   0  0  0  0  0  0  0  0  0  0  0  0
    3.2638   -0.0313   33.3108 C   0  0  0  0  0  0  0  0  0  0  0  0
    1.9618   -0.4482   34.5593 S   0  0  0  0  0  0  0  0  0  0  0  0
    4.3017    1.2728   34.0025 Cl  0  0  0  0  0  0  0  0  0  0  0  0
    4.2215   -1.2583   33.1037 C   0  0  0  0  0  0  0  0  0  0  0  0
    4.5005   -1.6033   31.9897 O   0  0  0  0  0  0  0  0  0  0  0  0
    4.6074   -1.8051   34.3807 N   0  0  0  0  0  0  0  0  0  0  0  0
    5.3732   -2.9969   34.7164 C   0  0  0  0  0  0  0  0  0  0  0  0
    6.8472   -2.8814   34.2228 C   0  0  0  0  0  0  0  0  0  0  0  0
    7.9194   -3.0734   34.9568 N   0  0  0  0  0  0  0  0  0  0  0  0
    9.0189   -2.8847   34.1466 N   0  0  0  0  0  0  0  0  0  0  0  0
    8.5921   -2.5778   32.9380 C   0  0  0  0  0  0  0  0  0  0  0  0
    9.4172   -2.2966   31.8035 C   0  0  0  0  0  0  0  0  0  0  0  0
   10.7987   -2.3006   31.7720 C   0  0  0  0  0  0  0  0  0  0  0  0
   11.3202   -1.9760   30.4853 C   0  0  0  0  0  0  0  0  0  0  0  0
   10.3191   -1.7330   29.5724 C   0  0  0  0  0  0  0  0  0  0  0  0
    8.7648   -1.8999   30.2670 S   0  0  0  0  0  0  0  0  0  0  0  0
    7.2257   -2.5714   32.9458 N   0  0  0  0  0  0  0  0  0  0  0  0
    4.6637   -4.3058   34.2724 C   0  0  0  0  0  0  0  0  0  0  0  0
    5.0354   -4.9136   35.6334 C   0  0  0  0  0  0  0  0  0  0  0  0
    5.1744   -3.4779   36.1754 C   0  0  0  0  0  0  0  0  0  0  0  0
    0.2284   -2.1109   30.8140 N   0  0  0  0  0  0  0  0  0  0  0  0
   -0.0275   -3.2636   31.5314 C   0  0  0  0  0  0  0  0  0  0  0  0
    1.1960   -4.1541   32.3811 S   0  0  0  0  0  0  0  0  0  0  0  0
    0.2622   -5.4234   33.0982 C   0  0  0  0  0  0  0  0  0  0  0  0
    0.1233   -5.4860   34.4396 C   0  0  0  0  0  0  0  0  0  0  0  0
   -0.5804   -6.6086   35.0409 C   0  0  0  0  0  0  0  0  0  0  0  0
   -1.1024   -7.5930   34.2875 C   0  0  0  0  0  0  0  0  0  0  0  0
   -0.9606   -7.5469   32.8753 C   0  0  0  0  0  0  0  0  0  0  0  0
   -1.3451   -8.3582   31.9127 N   0  0  0  0  0  0  0  0  0  0  0  0
   -0.8879   -7.8497   30.7213 N   0  0  0  0  0  0  0  0  0  0  0  0
   -0.2440   -6.7357   30.9873 C   0  0  0  0  0  0  0  0  0  0  0  0
   -0.2730   -6.4700   32.3310 N   0  0  0  0  0  0  0  0  0  0  0  0
   -1.2981   -3.5676   31.4541 N   0  0  0  0  0  0  0  0  0  0  0  0
   -1.8898   -2.6422   30.6354 N   0  0  0  0  0  0  0  0  0  0  0  0
   -0.9790   -1.7752   30.2151 C   0  0  0  0  0  0  0  0  0  0  0  0
   -1.2493   -0.7103   29.2430 C   0  0  0  0  0  0  0  0  0  0  0  0
   -0.8601    0.6214   29.4039 C   0  0  0  0  0  0  0  0  0  0  0  0
   -1.1278    1.5685   28.4123 C   0  0  0  0  0  0  0  0  0  0  0  0
   -1.8581    1.1793   27.3113 C   0  0  0  0  0  0  0  0  0  0  0  0
   -2.2780   -0.0812   27.1273 N   0  0  0  0  0  0  0  0  0  0  0  0
   -1.9601   -0.9952   28.0818 C   0  0  0  0  0  0  0  0  0  0  0  0
    3.4238   -1.6802   27.8328 H   0  0  0  0  0  0  0  0  0  0  0  0
    3.6970   -2.5708   29.4380 H   0  0  0  0  0  0  0  0  0  0  0  0
    1.5210   -0.5367   28.7089 H   0  0  0  0  0  0  0  0  0  0  0  0
    2.2297   -2.0433   31.2993 H   0  0  0  0  0  0  0  0  0  0  0  0
    0.7493   -0.3069   32.3195 H   0  0  0  0  0  0  0  0  0  0  0  0
    3.3567    0.4968   31.1738 H   0  0  0  0  0  0  0  0  0  0  0  0
    2.3368    1.5259   32.1310 H   0  0  0  0  0  0  0  0  0  0  0  0
    1.5956   -1.6171   34.0127 H   0  0  0  0  0  0  0  0  0  0  0  0
    4.2486   -1.2025   35.1224 H   0  0  0  0  0  0  0  0  0  0  0  0
   11.4086   -2.5266   32.6402 H   0  0  0  0  0  0  0  0  0  0  0  0
   12.3758   -1.9223   30.2458 H   0  0  0  0  0  0  0  0  0  0  0  0
   10.4262   -1.4639   28.5301 H   0  0  0  0  0  0  0  0  0  0  0  0
    6.6169   -2.3550   32.1677 H   0  0  0  0  0  0  0  0  0  0  0  0
    3.5823   -4.2083   34.1385 H   0  0  0  0  0  0  0  0  0  0  0  0
    5.0749   -4.8248   33.4017 H   0  0  0  0  0  0  0  0  0  0  0  0
    4.2631   -5.5258   36.1068 H   0  0  0  0  0  0  0  0  0  0  0  0
    5.9771   -5.4747   35.6251 H   0  0  0  0  0  0  0  0  0  0  0  0
    6.0050   -3.3208   36.8699 H   0  0  0  0  0  0  0  0  0  0  0  0
    4.2579   -3.1090   36.6540 H   0  0  0  0  0  0  0  0  0  0  0  0
    0.5227   -4.7338   35.1126 H   0  0  0  0  0  0  0  0  0  0  0  0
   -0.6800   -6.6331   36.1229 H   0  0  0  0  0  0  0  0  0  0  0  0
   -1.6243   -8.4303   34.7376 H   0  0  0  0  0  0  0  0  0  0  0  0
    0.2268   -6.0923   30.2596 H   0  0  0  0  0  0  0  0  0  0  0  0
   -0.3545    0.9629   30.2974 H   0  0  0  0  0  0  0  0  0  0  0  0
   -0.8093    2.6004   28.5169 H   0  0  0  0  0  0  0  0  0  0  0  0
   -2.1429    1.8867   26.5389 H   0  0  0  0  0  0  0  0  0  0  0  0
   -2.3158   -1.9996   27.8687 H   0  0  0  0  0  0  0  0  0  0  0  0
  1  2  2  0
  2  3  1  0
  3  4  1  0
  4  5  1  0
  5  6  1  0
  6  7  1  0
  6  8  1  0
  6  9  1  0
  9 10  2  0
  9 11  1  0
 11 12  1  0
 12 13  1  0
 13 14  2  0
 14 15  1  0
 15 16  2  0
 16 17  1  0
 17 18  2  0
 18 19  1  0
 19 20  2  0
 20 21  1  0
 16 22  1  0
 12 23  1  0
 23 24  1  0
 24 25  1  0
  3 26  1  0
 26 27  1  0
 27 28  1  0
 28 29  1  0
 29 30  2  0
 30 31  1  0
 31 32  2  0
 32 33  1  0
 33 34  2  0
 34 35  1  0
 35 36  2  0
 36 37  1  0
 27 38  2  0
 38 39  1  0
 39 40  2  0
 40 41  1  0
 41 42  2  0
 42 43  1  0
 43 44  2  0
 44 45  1  0
 45 46  2  0
 25 12  1  0
 40 26  1  0
 46 41  1  0
 22 13  1  0
 37 29  1  0
 21 17  1  0
 37 33  1  0
  1 47  1  0
  1 48  1  0
  2 49  1  0
  3 50  1  0
  4 51  1  0
  5 52  1  0
  5 53  1  0
  7 54  1  0
 11 55  1  0
 18 56  1  0
 19 57  1  0
 20 58  1  0
 22 59  1  0
 23 60  1  0
 23 61  1  0
 24 62  1  0
 24 63  1  0
 25 64  1  0
 25 65  1  0
 30 66  1  0
 31 67  1  0
 32 68  1  0
 36 69  1  0
 42 70  1  0
 43 71  1  0
 44 72  1  0
 46 73  1  0
M  END
>  <Energy>  (1148) 
141.73407265916072

>  <compound_id>  (1148) 
4543

>  <target_id>  (1148) 
1

>  <reference_id>  (1148) 
162

>  <inspiration_ids>  (1148) 
[162, 128]

>  <energy_score>  (1148) 
-83.5947470320773

>  <distance_score>  (1148) 
2.0992252278309422

>  <path>  (1148) 
/opt/xchem-fragalysis-2/maxwin/BulkDock/SCRATCH/505735/C4543-P162/C4543-P162.minimised.mol

>  <scratch_subdir>  (1148) 
/opt/xchem-fragalysis-2/maxwin/BulkDock/SCRATCH/505735/C4543-P162

>  <fragmenstein_runtime>  (1148) 
16.403077840805054

>  <fragmenstein_outcome>  (1148) 
too moved

>  <fragmenstein_mode>  (1148) 
expansion

>  <fragmenstein_error>  (1148) 


$$$$
C4543-P128
     RDKit          3D

 73 79  0  0  0  0  0  0  0  0999 V2000
    3.0034   -1.5117   29.0937 C   0  0  0  0  0  0  0  0  0  0  0  0
    2.4905   -1.9282   30.2585 C   0  0  0  0  0  0  0  0  0  0  0  0
    1.3050   -1.3013   30.9310 C   0  0  0  0  0  0  0  0  0  0  0  0
    1.4905   -0.9016   32.3664 N   0  0  0  0  0  0  0  0  0  0  0  0
    1.9138    0.5379   32.5620 C   0  0  0  0  0  0  0  0  0  0  0  0
    1.8865    1.0779   34.0221 C   0  0  0  0  0  0  0  0  0  0  0  0
    0.3732    0.5359   34.9158 S   0  0  0  0  0  0  0  0  0  0  0  0
    1.8579    2.8772   33.9690 Cl  0  0  0  0  0  0  0  0  0  0  0  0
    3.1605    0.6115   34.7965 C   0  0  0  0  0  0  0  0  0  0  0  0
    3.9654    1.3490   35.2188 O   0  0  0  0  0  0  0  0  0  0  0  0
    3.1376   -0.9476   34.7641 N   0  0  0  0  0  0  0  0  0  0  0  0
    4.1510   -1.9172   35.1615 C   0  0  0  0  0  0  0  0  0  0  0  0
    4.7491   -1.6323   36.5665 C   0  0  0  0  0  0  0  0  0  0  0  0
    4.8610   -2.5148   37.5348 N   0  0  0  0  0  0  0  0  0  0  0  0
    5.4401   -1.8833   38.6135 N   0  0  0  0  0  0  0  0  0  0  0  0
    5.6630   -0.6271   38.2827 C   0  0  0  0  0  0  0  0  0  0  0  0
    6.2372    0.3714   39.1311 C   0  0  0  0  0  0  0  0  0  0  0  0
    6.6635    0.1944   40.4338 C   0  0  0  0  0  0  0  0  0  0  0  0
    7.1896    1.3888   41.0071 C   0  0  0  0  0  0  0  0  0  0  0  0
    7.1485    2.4430   40.1231 C   0  0  0  0  0  0  0  0  0  0  0  0
    6.4798    1.9894   38.6161 S   0  0  0  0  0  0  0  0  0  0  0  0
    5.2483   -0.4336   36.9949 N   0  0  0  0  0  0  0  0  0  0  0  0
    5.1930   -2.1335   34.0318 C   0  0  0  0  0  0  0  0  0  0  0  0
    4.2842   -3.2509   33.4894 C   0  0  0  0  0  0  0  0  0  0  0  0
    3.7157   -3.3866   34.9155 C   0  0  0  0  0  0  0  0  0  0  0  0
    0.1091   -2.1455   30.8740 N   0  0  0  0  0  0  0  0  0  0  0  0
   -0.1370   -3.3429   31.5026 C   0  0  0  0  0  0  0  0  0  0  0  0
    1.0821   -4.2866   32.2857 S   0  0  0  0  0  0  0  0  0  0  0  0
    0.1178   -5.4620   33.0997 C   0  0  0  0  0  0  0  0  0  0  0  0
   -0.0083   -5.4257   34.4426 C   0  0  0  0  0  0  0  0  0  0  0  0
   -0.7611   -6.4650   35.1222 C   0  0  0  0  0  0  0  0  0  0  0  0
   -1.3337   -7.4702   34.4374 C   0  0  0  0  0  0  0  0  0  0  0  0
   -1.1959   -7.5333   33.0239 C   0  0  0  0  0  0  0  0  0  0  0  0
   -1.6220   -8.3871   32.1168 N   0  0  0  0  0  0  0  0  0  0  0  0
   -1.1786   -7.9661   30.8876 N   0  0  0  0  0  0  0  0  0  0  0  0
   -0.4914   -6.8633   31.0754 C   0  0  0  0  0  0  0  0  0  0  0  0
   -0.4734   -6.5258   32.4043 N   0  0  0  0  0  0  0  0  0  0  0  0
   -1.4057   -3.6491   31.3865 N   0  0  0  0  0  0  0  0  0  0  0  0
   -1.9852   -2.7000   30.5854 N   0  0  0  0  0  0  0  0  0  0  0  0
   -1.0702   -1.8161   30.2276 C   0  0  0  0  0  0  0  0  0  0  0  0
   -1.2554   -0.7089   29.2901 C   0  0  0  0  0  0  0  0  0  0  0  0
   -0.9632    0.6181   29.6097 C   0  0  0  0  0  0  0  0  0  0  0  0
   -1.0846    1.6299   28.6536 C   0  0  0  0  0  0  0  0  0  0  0  0
   -1.5749    1.3013   27.4114 C   0  0  0  0  0  0  0  0  0  0  0  0
   -1.9001    0.0454   27.0762 N   0  0  0  0  0  0  0  0  0  0  0  0
   -1.7293   -0.9305   28.0084 C   0  0  0  0  0  0  0  0  0  0  0  0
    3.8660   -2.0076   28.6553 H   0  0  0  0  0  0  0  0  0  0  0  0
    2.5822   -0.6803   28.5337 H   0  0  0  0  0  0  0  0  0  0  0  0
    2.9743   -2.7723   30.7340 H   0  0  0  0  0  0  0  0  0  0  0  0
    1.0877   -0.3936   30.3752 H   0  0  0  0  0  0  0  0  0  0  0  0
    0.5709   -0.9774   32.8215 H   0  0  0  0  0  0  0  0  0  0  0  0
    2.9223    0.6497   32.1447 H   0  0  0  0  0  0  0  0  0  0  0  0
    1.2425    1.1569   31.9543 H   0  0  0  0  0  0  0  0  0  0  0  0
    0.6118    1.2564   36.0234 H   0  0  0  0  0  0  0  0  0  0  0  0
    2.3181   -1.2663   34.2452 H   0  0  0  0  0  0  0  0  0  0  0  0
    6.5989   -0.7566   40.9514 H   0  0  0  0  0  0  0  0  0  0  0  0
    7.5774    1.4675   42.0155 H   0  0  0  0  0  0  0  0  0  0  0  0
    7.4790    3.4594   40.2886 H   0  0  0  0  0  0  0  0  0  0  0  0
    5.2532    0.4400   36.4822 H   0  0  0  0  0  0  0  0  0  0  0  0
    5.3599   -1.2957   33.3477 H   0  0  0  0  0  0  0  0  0  0  0  0
    6.1699   -2.4961   34.3757 H   0  0  0  0  0  0  0  0  0  0  0  0
    3.5701   -2.8846   32.7573 H   0  0  0  0  0  0  0  0  0  0  0  0
    4.7933   -4.1315   33.0912 H   0  0  0  0  0  0  0  0  0  0  0  0
    2.6445   -3.5890   34.9840 H   0  0  0  0  0  0  0  0  0  0  0  0
    4.2441   -4.1390   35.5137 H   0  0  0  0  0  0  0  0  0  0  0  0
    0.4325   -4.6489   35.0589 H   0  0  0  0  0  0  0  0  0  0  0  0
   -0.8523   -6.4105   36.2035 H   0  0  0  0  0  0  0  0  0  0  0  0
   -1.8956   -8.2429   34.9475 H   0  0  0  0  0  0  0  0  0  0  0  0
   -0.0174   -6.2774   30.3026 H   0  0  0  0  0  0  0  0  0  0  0  0
   -0.6518    0.8913   30.6115 H   0  0  0  0  0  0  0  0  0  0  0  0
   -0.8480    2.6642   28.8811 H   0  0  0  0  0  0  0  0  0  0  0  0
   -1.7413    2.0531   26.6462 H   0  0  0  0  0  0  0  0  0  0  0  0
   -2.0188   -1.9231   27.6772 H   0  0  0  0  0  0  0  0  0  0  0  0
  1  2  2  0
  2  3  1  0
  3  4  1  0
  4  5  1  0
  5  6  1  0
  6  7  1  0
  6  8  1  0
  6  9  1  0
  9 10  2  0
  9 11  1  0
 11 12  1  0
 12 13  1  0
 13 14  2  0
 14 15  1  0
 15 16  2  0
 16 17  1  0
 17 18  2  0
 18 19  1  0
 19 20  2  0
 20 21  1  0
 16 22  1  0
 12 23  1  0
 23 24  1  0
 24 25  1  0
  3 26  1  0
 26 27  1  0
 27 28  1  0
 28 29  1  0
 29 30  2  0
 30 31  1  0
 31 32  2  0
 32 33  1  0
 33 34  2  0
 34 35  1  0
 35 36  2  0
 36 37  1  0
 27 38  2  0
 38 39  1  0
 39 40  2  0
 40 41  1  0
 41 42  2  0
 42 43  1  0
 43 44  2  0
 44 45  1  0
 45 46  2  0
 25 12  1  0
 40 26  1  0
 46 41  1  0
 22 13  1  0
 37 29  1  0
 21 17  1  0
 37 33  1  0
  1 47  1  0
  1 48  1  0
  2 49  1  0
  3 50  1  0
  4 51  1  0
  5 52  1  0
  5 53  1  0
  7 54  1  0
 11 55  1  0
 18 56  1  0
 19 57  1  0
 20 58  1  0
 22 59  1  0
 23 60  1  0
 23 61  1  0
 24 62  1  0
 24 63  1  0
 25 64  1  0
 25 65  1  0
 30 66  1  0
 31 67  1  0
 32 68  1  0
 36 69  1  0
 42 70  1  0
 43 71  1  0
 44 72  1  0
 46 73  1  0
M  END
>  <Energy>  (1149) 
155.15384226571521

>  <compound_id>  (1149) 
4543

>  <target_id>  (1149) 
1

>  <reference_id>  (1149) 
128

>  <inspiration_ids>  (1149) 
[162, 128]

>  <energy_score>  (1149) 
-84.70384836067626

>  <distance_score>  (1149) 
1.3107507375227838

>  <path>  (1149) 
/opt/xchem-fragalysis-2/maxwin/BulkDock/SCRATCH/505735/C4543-P128/C4543-P128.minimised.mol

>  <scratch_subdir>  (1149) 
/opt/xchem-fragalysis-2/maxwin/BulkDock/SCRATCH/505735/C4543-P128

>  <fragmenstein_runtime>  (1149) 
16.889669179916382

>  <fragmenstein_outcome>  (1149) 
too moved

>  <fragmenstein_mode>  (1149) 
expansion

>  <fragmenstein_error>  (1149) 


$$$$
C4545-P162
     RDKit          3D

 40 44  0  0  0  0  0  0  0  0999 V2000
    2.6048   -2.1918   29.0063 C   0  0  0  0  0  0  0  0  0  0  0  0
    1.5607   -3.0228   29.1475 C   0  0  0  0  0  0  0  0  0  0  0  0
    1.1745   -3.6782   30.4540 C   0  0  0  0  0  0  0  0  0  0  0  0
    1.1345   -5.2390   30.3987 C   0  0  0  0  0  0  0  0  0  0  0  0
    0.1252   -6.0969   31.1514 C   0  0  0  0  0  0  0  0  0  0  0  0
   -0.5186   -7.0887   30.5474 N   0  0  0  0  0  0  0  0  0  0  0  0
   -1.1701   -7.8510   31.4736 N   0  0  0  0  0  0  0  0  0  0  0  0
   -0.8945   -7.3543   32.6541 C   0  0  0  0  0  0  0  0  0  0  0  0
   -1.2407   -7.8034   33.9539 C   0  0  0  0  0  0  0  0  0  0  0  0
   -0.7965   -7.1485   35.0360 C   0  0  0  0  0  0  0  0  0  0  0  0
   -0.0683   -5.9102   34.8919 C   0  0  0  0  0  0  0  0  0  0  0  0
    0.2246   -5.4354   33.6629 C   0  0  0  0  0  0  0  0  0  0  0  0
   -0.1259   -6.1933   32.5275 N   0  0  0  0  0  0  0  0  0  0  0  0
    0.9105   -3.8656   33.5732 S   0  0  0  0  0  0  0  0  0  0  0  0
   -0.2647   -3.1836   32.4683 C   0  0  0  0  0  0  0  0  0  0  0  0
   -1.4325   -2.6834   32.8482 N   0  0  0  0  0  0  0  0  0  0  0  0
   -1.8619   -2.0962   31.7401 N   0  0  0  0  0  0  0  0  0  0  0  0
   -3.0226   -1.3770   31.8663 O   0  0  0  0  0  0  0  0  0  0  0  0
   -1.0082   -2.1489   30.6725 C   0  0  0  0  0  0  0  0  0  0  0  0
   -1.1285   -1.2146   29.5570 C   0  0  0  0  0  0  0  0  0  0  0  0
   -0.3670   -0.0393   29.5548 C   0  0  0  0  0  0  0  0  0  0  0  0
   -0.5799    0.9349   28.5806 C   0  0  0  0  0  0  0  0  0  0  0  0
   -1.5599    0.7066   27.6339 C   0  0  0  0  0  0  0  0  0  0  0  0
   -2.3030   -0.4150   27.5961 N   0  0  0  0  0  0  0  0  0  0  0  0
   -2.0675   -1.3523   28.5468 C   0  0  0  0  0  0  0  0  0  0  0  0
   -0.0231   -3.0487   31.0838 C   0  0  0  0  0  0  0  0  0  0  0  0
    3.2660   -1.9392   29.8288 H   0  0  0  0  0  0  0  0  0  0  0  0
    2.8048   -1.7250   28.0449 H   0  0  0  0  0  0  0  0  0  0  0  0
    0.9150   -3.2116   28.2916 H   0  0  0  0  0  0  0  0  0  0  0  0
    2.0223   -3.4515   31.1189 H   0  0  0  0  0  0  0  0  0  0  0  0
    1.0563   -5.5320   29.3446 H   0  0  0  0  0  0  0  0  0  0  0  0
    2.1272   -5.6004   30.6984 H   0  0  0  0  0  0  0  0  0  0  0  0
   -1.8497   -8.6905   34.0486 H   0  0  0  0  0  0  0  0  0  0  0  0
   -1.0286   -7.5046   36.0361 H   0  0  0  0  0  0  0  0  0  0  0  0
    0.1438   -5.3558   35.8030 H   0  0  0  0  0  0  0  0  0  0  0  0
   -3.1495   -1.6104   32.8030 H   0  0  0  0  0  0  0  0  0  0  0  0
    0.3806    0.1350   30.3242 H   0  0  0  0  0  0  0  0  0  0  0  0
   -0.0078    1.8554   28.5715 H   0  0  0  0  0  0  0  0  0  0  0  0
   -1.7867    1.4381   26.8647 H   0  0  0  0  0  0  0  0  0  0  0  0
   -2.7048   -2.2258   28.4795 H   0  0  0  0  0  0  0  0  0  0  0  0
  1  2  2  0
  2  3  1  0
  3  4  1  0
  4  5  1  0
  5  6  2  0
  6  7  1  0
  7  8  2  0
  8  9  1  0
  9 10  2  0
 10 11  1  0
 11 12  2  0
 12 13  1  0
 12 14  1  0
 14 15  1  0
 15 16  2  0
 16 17  1  0
 17 18  1  0
 17 19  1  0
 19 20  1  0
 20 21  2  0
 21 22  1  0
 22 23  2  0
 23 24  1  0
 24 25  2  0
 19 26  2  0
 26  3  1  0
 13  5  1  0
 26 15  1  0
 13  8  1  0
 25 20  1  0
  1 27  1  0
  1 28  1  0
  2 29  1  0
  3 30  1  0
  4 31  1  0
  4 32  1  0
  9 33  1  0
 10 34  1  0
 11 35  1  0
 18 36  1  0
 21 37  1  0
 22 38  1  0
 23 39  1  0
 25 40  1  0
M  END
>  <Energy>  (1150) 
55.195183472607596

>  <compound_id>  (1150) 
4545

>  <target_id>  (1150) 
1

>  <reference_id>  (1150) 
162

>  <inspiration_ids>  (1150) 
[162, 132]

>  <energy_score>  (1150) 
-70.60487145495617

>  <distance_score>  (1150) 
1.0760603313968709

>  <path>  (1150) 
/opt/xchem-fragalysis-2/maxwin/BulkDock/SCRATCH/505735/C4545-P162/C4545-P162.minimised.mol

>  <scratch_subdir>  (1150) 
/opt/xchem-fragalysis-2/maxwin/BulkDock/SCRATCH/505735/C4545-P162

>  <fragmenstein_runtime>  (1150) 
1.7641549110412598

>  <fragmenstein_outcome>  (1150) 
too moved

>  <fragmenstein_mode>  (1150) 
expansion

>  <fragmenstein_error>  (1150) 


$$$$
C4545-P132
     RDKit          3D

 40 44  0  0  0  0  0  0  0  0999 V2000
    2.6330   -2.1301   28.9760 C   0  0  0  0  0  0  0  0  0  0  0  0
    1.6212   -2.9973   29.1322 C   0  0  0  0  0  0  0  0  0  0  0  0
    1.2788   -3.6586   30.4443 C   0  0  0  0  0  0  0  0  0  0  0  0
    1.2056   -5.2203   30.3874 C   0  0  0  0  0  0  0  0  0  0  0  0
    0.1241   -6.0293   31.0856 C   0  0  0  0  0  0  0  0  0  0  0  0
   -0.6005   -6.9381   30.4455 N   0  0  0  0  0  0  0  0  0  0  0  0
   -1.3068   -7.6814   31.3482 N   0  0  0  0  0  0  0  0  0  0  0  0
   -0.9998   -7.2422   32.5437 C   0  0  0  0  0  0  0  0  0  0  0  0
   -1.4064   -7.6792   33.8276 C   0  0  0  0  0  0  0  0  0  0  0  0
   -0.9161   -7.0991   34.9324 C   0  0  0  0  0  0  0  0  0  0  0  0
   -0.0604   -5.9422   34.8299 C   0  0  0  0  0  0  0  0  0  0  0  0
    0.2872   -5.4695   33.6154 C   0  0  0  0  0  0  0  0  0  0  0  0
   -0.1309   -6.1554   32.4568 N   0  0  0  0  0  0  0  0  0  0  0  0
    1.1085   -3.9650   33.5632 S   0  0  0  0  0  0  0  0  0  0  0  0
   -0.0560   -3.1605   32.5302 C   0  0  0  0  0  0  0  0  0  0  0  0
   -1.1731   -2.6047   32.9779 N   0  0  0  0  0  0  0  0  0  0  0  0
   -1.6015   -1.9409   31.9128 N   0  0  0  0  0  0  0  0  0  0  0  0
   -2.6734   -1.1142   32.1324 O   0  0  0  0  0  0  0  0  0  0  0  0
   -0.8044   -2.0215   30.8027 C   0  0  0  0  0  0  0  0  0  0  0  0
   -0.8975   -1.0479   29.7183 C   0  0  0  0  0  0  0  0  0  0  0  0
   -0.3783    0.2397   29.9061 C   0  0  0  0  0  0  0  0  0  0  0  0
   -0.5291    1.2142   28.9211 C   0  0  0  0  0  0  0  0  0  0  0  0
   -1.2117    0.8761   27.7723 C   0  0  0  0  0  0  0  0  0  0  0  0
   -1.7034   -0.3554   27.5485 N   0  0  0  0  0  0  0  0  0  0  0  0
   -1.5260   -1.2945   28.5105 C   0  0  0  0  0  0  0  0  0  0  0  0
    0.1359   -2.9967   31.1412 C   0  0  0  0  0  0  0  0  0  0  0  0
    3.2942   -1.8509   29.7899 H   0  0  0  0  0  0  0  0  0  0  0  0
    2.8022   -1.6526   28.0141 H   0  0  0  0  0  0  0  0  0  0  0  0
    0.9690   -3.2100   28.2897 H   0  0  0  0  0  0  0  0  0  0  0  0
    2.1639   -3.4576   31.0691 H   0  0  0  0  0  0  0  0  0  0  0  0
    1.1902   -5.5212   29.3331 H   0  0  0  0  0  0  0  0  0  0  0  0
    2.1669   -5.6080   30.7550 H   0  0  0  0  0  0  0  0  0  0  0  0
   -2.1177   -8.4893   33.8801 H   0  0  0  0  0  0  0  0  0  0  0  0
   -1.2047   -7.4409   35.9207 H   0  0  0  0  0  0  0  0  0  0  0  0
    0.1970   -5.4320   35.7552 H   0  0  0  0  0  0  0  0  0  0  0  0
   -2.8016   -1.4057   33.0525 H   0  0  0  0  0  0  0  0  0  0  0  0
    0.1372    0.4976   30.8276 H   0  0  0  0  0  0  0  0  0  0  0  0
   -0.1431    2.2182   29.0564 H   0  0  0  0  0  0  0  0  0  0  0  0
   -1.3911    1.6014   26.9852 H   0  0  0  0  0  0  0  0  0  0  0  0
   -1.9427   -2.2658   28.2711 H   0  0  0  0  0  0  0  0  0  0  0  0
  1  2  2  0
  2  3  1  0
  3  4  1  0
  4  5  1  0
  5  6  2  0
  6  7  1  0
  7  8  2  0
  8  9  1  0
  9 10  2  0
 10 11  1  0
 11 12  2  0
 12 13  1  0
 12 14  1  0
 14 15  1  0
 15 16  2  0
 16 17  1  0
 17 18  1  0
 17 19  1  0
 19 20  1  0
 20 21  2  0
 21 22  1  0
 22 23  2  0
 23 24  1  0
 24 25  2  0
 19 26  2  0
 26  3  1  0
 13  5  1  0
 26 15  1  0
 13  8  1  0
 25 20  1  0
  1 27  1  0
  1 28  1  0
  2 29  1  0
  3 30  1  0
  4 31  1  0
  4 32  1  0
  9 33  1  0
 10 34  1  0
 11 35  1  0
 18 36  1  0
 21 37  1  0
 22 38  1  0
 23 39  1  0
 25 40  1  0
M  END
>  <Energy>  (1151) 
54.719554807322453

>  <compound_id>  (1151) 
4545

>  <target_id>  (1151) 
1

>  <reference_id>  (1151) 
132

>  <inspiration_ids>  (1151) 
[162, 132]

>  <energy_score>  (1151) 
-71.08050012024236

>  <distance_score>  (1151) 
1.156100086733411

>  <path>  (1151) 
/opt/xchem-fragalysis-2/maxwin/BulkDock/SCRATCH/505735/C4545-P132/C4545-P132.minimised.mol

>  <scratch_subdir>  (1151) 
/opt/xchem-fragalysis-2/maxwin/BulkDock/SCRATCH/505735/C4545-P132

>  <fragmenstein_runtime>  (1151) 
1.521866798400879

>  <fragmenstein_outcome>  (1151) 
too moved

>  <fragmenstein_mode>  (1151) 
expansion

>  <fragmenstein_error>  (1151) 


$$$$
C4546-P162
     RDKit          3D

 41 45  0  0  0  0  0  0  0  0999 V2000
    2.6511   -2.1853   29.0398 C   0  0  0  0  0  0  0  0  0  0  0  0
    1.5944   -3.0038   29.1570 C   0  0  0  0  0  0  0  0  0  0  0  0
    1.1690   -3.6542   30.4543 C   0  0  0  0  0  0  0  0  0  0  0  0
    1.1167   -5.2110   30.3915 C   0  0  0  0  0  0  0  0  0  0  0  0
    0.1236   -6.0704   31.1625 C   0  0  0  0  0  0  0  0  0  0  0  0
   -0.5021   -7.0811   30.5708 N   0  0  0  0  0  0  0  0  0  0  0  0
   -1.1321   -7.8471   31.5068 N   0  0  0  0  0  0  0  0  0  0  0  0
   -0.8657   -7.3314   32.6808 C   0  0  0  0  0  0  0  0  0  0  0  0
   -1.1974   -7.7764   33.9854 C   0  0  0  0  0  0  0  0  0  0  0  0
   -0.7742   -7.0965   35.0599 C   0  0  0  0  0  0  0  0  0  0  0  0
   -0.0838   -5.8387   34.9012 C   0  0  0  0  0  0  0  0  0  0  0  0
    0.1958   -5.3680   33.6671 C   0  0  0  0  0  0  0  0  0  0  0  0
   -0.1293   -6.1505   32.5395 N   0  0  0  0  0  0  0  0  0  0  0  0
    0.8401   -3.7798   33.5696 S   0  0  0  0  0  0  0  0  0  0  0  0
   -0.3189   -3.1393   32.4279 C   0  0  0  0  0  0  0  0  0  0  0  0
   -1.4983   -2.6429   32.7742 N   0  0  0  0  0  0  0  0  0  0  0  0
   -1.9032   -2.0700   31.6505 N   0  0  0  0  0  0  0  0  0  0  0  0
   -3.0639   -1.3461   31.7441 O   0  0  0  0  0  0  0  0  0  0  0  0
   -1.0243   -2.1309   30.6034 C   0  0  0  0  0  0  0  0  0  0  0  0
   -1.1256   -1.2127   29.4728 C   0  0  0  0  0  0  0  0  0  0  0  0
   -0.3109   -0.0731   29.4275 C   0  0  0  0  0  0  0  0  0  0  0  0
   -0.5100    0.8918   28.4420 C   0  0  0  0  0  0  0  0  0  0  0  0
   -1.5335    0.6799   27.5485 C   0  0  0  0  0  0  0  0  0  0  0  0
   -1.8294    1.5976   26.5971 O   0  0  0  0  0  0  0  0  0  0  0  0
   -2.3391   -0.3868   27.5422 N   0  0  0  0  0  0  0  0  0  0  0  0
   -2.1049   -1.3229   28.4947 C   0  0  0  0  0  0  0  0  0  0  0  0
   -0.0448   -3.0204   31.0481 C   0  0  0  0  0  0  0  0  0  0  0  0
    3.2947   -1.9386   29.8780 H   0  0  0  0  0  0  0  0  0  0  0  0
    2.8810   -1.7232   28.0827 H   0  0  0  0  0  0  0  0  0  0  0  0
    0.9695   -3.1881   28.2850 H   0  0  0  0  0  0  0  0  0  0  0  0
    1.9995   -3.4347   31.1423 H   0  0  0  0  0  0  0  0  0  0  0  0
    1.0022   -5.4934   29.3379 H   0  0  0  0  0  0  0  0  0  0  0  0
    2.1156   -5.5826   30.6564 H   0  0  0  0  0  0  0  0  0  0  0  0
   -1.7821   -8.6787   34.0894 H   0  0  0  0  0  0  0  0  0  0  0  0
   -0.9997   -7.4470   36.0635 H   0  0  0  0  0  0  0  0  0  0  0  0
    0.1103   -5.2684   35.8064 H   0  0  0  0  0  0  0  0  0  0  0  0
   -3.2107   -1.5668   32.6810 H   0  0  0  0  0  0  0  0  0  0  0  0
    0.4661    0.0820   30.1713 H   0  0  0  0  0  0  0  0  0  0  0  0
    0.0943    1.7886   28.3902 H   0  0  0  0  0  0  0  0  0  0  0  0
   -2.6697    1.2181   26.2762 H   0  0  0  0  0  0  0  0  0  0  0  0
   -2.7774   -2.1725   28.4615 H   0  0  0  0  0  0  0  0  0  0  0  0
  1  2  2  0
  2  3  1  0
  3  4  1  0
  4  5  1  0
  5  6  2  0
  6  7  1  0
  7  8  2  0
  8  9  1  0
  9 10  2  0
 10 11  1  0
 11 12  2  0
 12 13  1  0
 12 14  1  0
 14 15  1  0
 15 16  2  0
 16 17  1  0
 17 18  1  0
 17 19  1  0
 19 20  1  0
 20 21  2  0
 21 22  1  0
 22 23  2  0
 23 24  1  0
 23 25  1  0
 25 26  2  0
 19 27  2  0
 27  3  1  0
 13  5  1  0
 27 15  1  0
 13  8  1  0
 26 20  1  0
  1 28  1  0
  1 29  1  0
  2 30  1  0
  3 31  1  0
  4 32  1  0
  4 33  1  0
  9 34  1  0
 10 35  1  0
 11 36  1  0
 18 37  1  0
 21 38  1  0
 22 39  1  0
 24 40  1  0
 26 41  1  0
M  END
>  <Energy>  (1152) 
15.565017947061939

>  <compound_id>  (1152) 
4546

>  <target_id>  (1152) 
1

>  <reference_id>  (1152) 
162

>  <inspiration_ids>  (1152) 
[162, 133]

>  <energy_score>  (1152) 
-61.978913055724576

>  <distance_score>  (1152) 
1.4762905952863714

>  <path>  (1152) 
/opt/xchem-fragalysis-2/maxwin/BulkDock/SCRATCH/505735/C4546-P162/C4546-P162.minimised.mol

>  <scratch_subdir>  (1152) 
/opt/xchem-fragalysis-2/maxwin/BulkDock/SCRATCH/505735/C4546-P162

>  <fragmenstein_runtime>  (1152) 
1.540818214416504

>  <fragmenstein_outcome>  (1152) 
too moved

>  <fragmenstein_mode>  (1152) 
expansion

>  <fragmenstein_error>  (1152) 


$$$$
C4546-P133
     RDKit          3D

 41 45  0  0  0  0  0  0  0  0999 V2000
    2.7458   -2.1860   29.1895 C   0  0  0  0  0  0  0  0  0  0  0  0
    1.6474   -2.9562   29.1768 C   0  0  0  0  0  0  0  0  0  0  0  0
    1.1312   -3.7073   30.3875 C   0  0  0  0  0  0  0  0  0  0  0  0
    0.6320   -5.1314   30.0711 C   0  0  0  0  0  0  0  0  0  0  0  0
   -0.0570   -6.0800   31.0503 C   0  0  0  0  0  0  0  0  0  0  0  0
   -0.6747   -7.1402   30.5338 N   0  0  0  0  0  0  0  0  0  0  0  0
   -1.2720   -7.8605   31.5130 N   0  0  0  0  0  0  0  0  0  0  0  0
   -0.9907   -7.2799   32.6504 C   0  0  0  0  0  0  0  0  0  0  0  0
   -1.3624   -7.6444   33.9671 C   0  0  0  0  0  0  0  0  0  0  0  0
   -0.8843   -6.9733   35.0204 C   0  0  0  0  0  0  0  0  0  0  0  0
   -0.0695   -5.8051   34.8199 C   0  0  0  0  0  0  0  0  0  0  0  0
    0.2298   -5.3809   33.5725 C   0  0  0  0  0  0  0  0  0  0  0  0
   -0.1994   -6.1358   32.4512 N   0  0  0  0  0  0  0  0  0  0  0  0
    1.0869   -3.8996   33.4912 S   0  0  0  0  0  0  0  0  0  0  0  0
   -0.0693   -3.0548   32.5038 C   0  0  0  0  0  0  0  0  0  0  0  0
   -1.1387   -2.4300   32.9757 N   0  0  0  0  0  0  0  0  0  0  0  0
   -1.5587   -1.7587   31.9123 N   0  0  0  0  0  0  0  0  0  0  0  0
   -2.6169   -0.9126   32.1274 O   0  0  0  0  0  0  0  0  0  0  0  0
   -0.7998   -1.9039   30.7832 C   0  0  0  0  0  0  0  0  0  0  0  0
   -0.9079   -0.9900   29.6554 C   0  0  0  0  0  0  0  0  0  0  0  0
   -0.3614    0.2972   29.7462 C   0  0  0  0  0  0  0  0  0  0  0  0
   -0.5352    1.2087   28.7067 C   0  0  0  0  0  0  0  0  0  0  0  0
   -1.2677    0.7917   27.6242 C   0  0  0  0  0  0  0  0  0  0  0  0
   -1.5352    1.6176   26.5887 O   0  0  0  0  0  0  0  0  0  0  0  0
   -1.7968   -0.4264   27.4833 N   0  0  0  0  0  0  0  0  0  0  0  0
   -1.5815   -1.3042   28.4885 C   0  0  0  0  0  0  0  0  0  0  0  0
    0.0936   -2.9203   31.1148 C   0  0  0  0  0  0  0  0  0  0  0  0
    3.3543   -2.0563   30.0788 H   0  0  0  0  0  0  0  0  0  0  0  0
    3.0459   -1.6439   28.2961 H   0  0  0  0  0  0  0  0  0  0  0  0
    1.0628   -3.0170   28.2608 H   0  0  0  0  0  0  0  0  0  0  0  0
    2.0128   -3.8379   31.0276 H   0  0  0  0  0  0  0  0  0  0  0  0
   -0.0968   -5.0141   29.2575 H   0  0  0  0  0  0  0  0  0  0  0  0
    1.4726   -5.6947   29.6414 H   0  0  0  0  0  0  0  0  0  0  0  0
   -2.0350   -8.4793   34.0951 H   0  0  0  0  0  0  0  0  0  0  0  0
   -1.1391   -7.2698   36.0332 H   0  0  0  0  0  0  0  0  0  0  0  0
    0.2207   -5.2576   35.7140 H   0  0  0  0  0  0  0  0  0  0  0  0
   -2.7480   -1.1989   33.0492 H   0  0  0  0  0  0  0  0  0  0  0  0
    0.1908    0.6047   30.6304 H   0  0  0  0  0  0  0  0  0  0  0  0
   -0.1408    2.2164   28.7543 H   0  0  0  0  0  0  0  0  0  0  0  0
   -2.1571    1.0405   26.1065 H   0  0  0  0  0  0  0  0  0  0  0  0
   -2.0064   -2.2864   28.3269 H   0  0  0  0  0  0  0  0  0  0  0  0
  1  2  2  0
  2  3  1  0
  3  4  1  0
  4  5  1  0
  5  6  2  0
  6  7  1  0
  7  8  2  0
  8  9  1  0
  9 10  2  0
 10 11  1  0
 11 12  2  0
 12 13  1  0
 12 14  1  0
 14 15  1  0
 15 16  2  0
 16 17  1  0
 17 18  1  0
 17 19  1  0
 19 20  1  0
 20 21  2  0
 21 22  1  0
 22 23  2  0
 23 24  1  0
 23 25  1  0
 25 26  2  0
 19 27  2  0
 27  3  1  0
 13  5  1  0
 27 15  1  0
 13  8  1  0
 26 20  1  0
  1 28  1  0
  1 29  1  0
  2 30  1  0
  3 31  1  0
  4 32  1  0
  4 33  1  0
  9 34  1  0
 10 35  1  0
 11 36  1  0
 18 37  1  0
 21 38  1  0
 22 39  1  0
 24 40  1  0
 26 41  1  0
M  END
>  <Energy>  (1153) 
17.345733538167885

>  <compound_id>  (1153) 
4546

>  <target_id>  (1153) 
1

>  <reference_id>  (1153) 
133

>  <inspiration_ids>  (1153) 
[162, 133]

>  <energy_score>  (1153) 
-60.198197464617294

>  <distance_score>  (1153) 
1.4755881431784807

>  <path>  (1153) 
/opt/xchem-fragalysis-2/maxwin/BulkDock/SCRATCH/505735/C4546-P133/C4546-P133.minimised.mol

>  <scratch_subdir>  (1153) 
/opt/xchem-fragalysis-2/maxwin/BulkDock/SCRATCH/505735/C4546-P133

>  <fragmenstein_runtime>  (1153) 
1.68039870262146

>  <fragmenstein_outcome>  (1153) 
too moved

>  <fragmenstein_mode>  (1153) 
expansion

>  <fragmenstein_error>  (1153) 


$$$$
C4545-P162
     RDKit          2D

  0  0  0  0  0  0  0  0  0  0999 V2000
M  END
>  <compound_id>  (1154) 
4545

>  <target_id>  (1154) 
1

>  <reference_id>  (1154) 
162

>  <inspiration_ids>  (1154) 
[162, 134]

>  <energy_score>  (1154) 
nan

>  <distance_score>  (1154) 
nan

>  <path>  (1154) 
/opt/xchem-fragalysis-2/maxwin/BulkDock/SCRATCH/505735/C4545-P162/C4545-P162.minimised.mol

>  <scratch_subdir>  (1154) 
/opt/xchem-fragalysis-2/maxwin/BulkDock/SCRATCH/505735/C4545-P162

>  <fragmenstein_runtime>  (1154) 
0.16414570808410645

>  <fragmenstein_outcome>  (1154) 
too distant

>  <fragmenstein_mode>  (1154) 
expansion

>  <fragmenstein_error>  (1154) 
DistanceError: hit0+hit1

$$$$
C4547-P162
     RDKit          3D

 42 46  0  0  0  0  0  0  0  0999 V2000
    2.7178   -1.5652   30.2427 C   0  0  0  0  0  0  0  0  0  0  0  0
    2.2019   -2.1865   29.1739 C   0  0  0  0  0  0  0  0  0  0  0  0
    0.8827   -2.8952   29.0585 C   0  0  0  0  0  0  0  0  0  0  0  0
   -0.0275   -2.7386   30.1855 N   0  0  0  0  0  0  0  0  0  0  0  0
   -1.0383   -1.7954   30.2591 C   0  0  0  0  0  0  0  0  0  0  0  0
   -1.2403   -0.7358   29.2827 C   0  0  0  0  0  0  0  0  0  0  0  0
   -0.6071    0.4980   29.4434 C   0  0  0  0  0  0  0  0  0  0  0  0
   -0.8107    1.5067   28.5054 C   0  0  0  0  0  0  0  0  0  0  0  0
   -1.6639    1.2554   27.4463 C   0  0  0  0  0  0  0  0  0  0  0  0
   -2.2739    0.0711   27.2497 N   0  0  0  0  0  0  0  0  0  0  0  0
   -2.0474   -0.9020   28.1664 C   0  0  0  0  0  0  0  0  0  0  0  0
   -1.7265   -1.9394   31.3765 N   0  0  0  0  0  0  0  0  0  0  0  0
   -1.1024   -2.9362   32.0426 C   0  0  0  0  0  0  0  0  0  0  0  0
   -1.4437   -3.3519   33.2559 O   0  0  0  0  0  0  0  0  0  0  0  0
   -0.0698   -3.5065   31.3359 C   0  0  0  0  0  0  0  0  0  0  0  0
    0.9686   -4.8818   31.6595 S   0  0  0  0  0  4  0  0  0  0  0  0
    0.3930   -6.1047   30.4088 C   0  0  0  0  0  0  0  0  0  0  0  0
   -0.3872   -7.0571   31.2294 C   0  0  0  0  0  0  0  0  0  0  0  0
   -1.1671   -8.0969   31.0446 N   0  0  0  0  0  0  0  0  0  0  0  0
   -1.5702   -8.5274   32.3299 N   0  0  0  0  0  0  0  0  0  0  0  0
   -1.0207   -7.7280   33.2304 C   0  0  0  0  0  0  0  0  0  0  0  0
   -0.9437   -7.5822   34.6473 C   0  0  0  0  0  0  0  0  0  0  0  0
   -0.2260   -6.5490   35.1686 C   0  0  0  0  0  0  0  0  0  0  0  0
    0.4763   -5.5519   34.3243 C   0  0  0  0  0  0  0  0  0  0  0  0
    0.3817   -5.7412   33.0071 C   0  0  0  0  0  0  0  0  0  0  0  0
   -0.3247   -6.7988   32.5450 N   0  0  0  0  0  0  0  0  0  0  0  0
    2.2031   -1.5133   31.1976 H   0  0  0  0  0  0  0  0  0  0  0  0
    3.6867   -1.0766   30.1825 H   0  0  0  0  0  0  0  0  0  0  0  0
    2.7878   -2.1760   28.2554 H   0  0  0  0  0  0  0  0  0  0  0  0
    0.3643   -2.5393   28.1654 H   0  0  0  0  0  0  0  0  0  0  0  0
    1.0627   -3.9604   28.9016 H   0  0  0  0  0  0  0  0  0  0  0  0
    0.0381    0.6789   30.2988 H   0  0  0  0  0  0  0  0  0  0  0  0
   -0.3403    2.4781   28.6131 H   0  0  0  0  0  0  0  0  0  0  0  0
   -1.8909    2.0225   26.7116 H   0  0  0  0  0  0  0  0  0  0  0  0
   -2.5588   -1.8393   27.9662 H   0  0  0  0  0  0  0  0  0  0  0  0
   -2.2791   -2.9278   33.5155 H   0  0  0  0  0  0  0  0  0  0  0  0
    2.3038   -4.6663   31.6183 H   0  0  0  0  0  0  0  0  0  0  0  0
    1.2746   -6.5437   29.9467 H   0  0  0  0  0  0  0  0  0  0  0  0
   -0.2279   -5.5910   29.6814 H   0  0  0  0  0  0  0  0  0  0  0  0
   -1.4347   -8.3146   35.2803 H   0  0  0  0  0  0  0  0  0  0  0  0
   -0.1529   -6.4241   36.2460 H   0  0  0  0  0  0  0  0  0  0  0  0
    0.9921   -4.7163   34.7798 H   0  0  0  0  0  0  0  0  0  0  0  0
  1  2  2  0
  2  3  1  0
  3  4  1  0
  4  5  1  0
  5  6  1  0
  6  7  2  0
  7  8  1  0
  8  9  2  0
  9 10  1  0
 10 11  2  0
  5 12  2  0
 12 13  1  0
 13 14  1  0
 13 15  2  0
 15 16  1  0
 16 17  1  0
 17 18  1  0
 18 19  2  0
 19 20  1  0
 20 21  2  0
 21 22  1  0
 22 23  2  0
 23 24  1  0
 24 25  2  0
 25 26  1  0
 15  4  1  0
 25 16  1  0
 11  6  1  0
 26 18  1  0
 26 21  1  0
  1 27  1  0
  1 28  1  0
  2 29  1  0
  3 30  1  0
  3 31  1  0
  7 32  1  0
  8 33  1  0
  9 34  1  0
 11 35  1  0
 14 36  1  0
 16 37  1  0
 17 38  1  0
 17 39  1  0
 22 40  1  0
 23 41  1  0
 24 42  1  0
M  END
>  <Energy>  (1155) 
72.402251254583703

>  <compound_id>  (1155) 
4547

>  <target_id>  (1155) 
1

>  <reference_id>  (1155) 
162

>  <inspiration_ids>  (1155) 
[162, 136]

>  <energy_score>  (1155) 
-106.31102816754697

>  <distance_score>  (1155) 
0.6578589312681369

>  <path>  (1155) 
/opt/xchem-fragalysis-2/maxwin/BulkDock/SCRATCH/505735/C4547-P162/C4547-P162.minimised.mol

>  <scratch_subdir>  (1155) 
/opt/xchem-fragalysis-2/maxwin/BulkDock/SCRATCH/505735/C4547-P162

>  <fragmenstein_runtime>  (1155) 
1.4068984985351562

>  <fragmenstein_outcome>  (1155) 
acceptable

>  <fragmenstein_mode>  (1155) 
expansion

>  <fragmenstein_error>  (1155) 


$$$$
C4547-P136
     RDKit          3D

 42 46  0  0  0  0  0  0  0  0999 V2000
    2.7792   -1.5675   30.2725 C   0  0  0  0  0  0  0  0  0  0  0  0
    2.2889   -2.1840   29.1891 C   0  0  0  0  0  0  0  0  0  0  0  0
    0.9613   -2.8658   29.0328 C   0  0  0  0  0  0  0  0  0  0  0  0
    0.0259   -2.7046   30.1376 N   0  0  0  0  0  0  0  0  0  0  0  0
   -0.9536   -1.7323   30.2170 C   0  0  0  0  0  0  0  0  0  0  0  0
   -1.0646   -0.6156   29.2909 C   0  0  0  0  0  0  0  0  0  0  0  0
   -0.5089    0.6220   29.6111 C   0  0  0  0  0  0  0  0  0  0  0  0
   -0.6327    1.6888   28.7226 C   0  0  0  0  0  0  0  0  0  0  0  0
   -1.3219    1.4863   27.5421 C   0  0  0  0  0  0  0  0  0  0  0  0
   -1.8392    0.2974   27.1857 N   0  0  0  0  0  0  0  0  0  0  0  0
   -1.7006   -0.7281   28.0638 C   0  0  0  0  0  0  0  0  0  0  0  0
   -1.7089   -1.9212   31.2850 N   0  0  0  0  0  0  0  0  0  0  0  0
   -1.1714   -2.9944   31.9076 C   0  0  0  0  0  0  0  0  0  0  0  0
   -1.6417   -3.5219   33.0330 O   0  0  0  0  0  0  0  0  0  0  0  0
   -0.0802   -3.5149   31.2507 C   0  0  0  0  0  0  0  0  0  0  0  0
    0.9561   -4.8914   31.5637 S   0  0  0  0  0  4  0  0  0  0  0  0
    0.3302   -6.1235   30.3446 C   0  0  0  0  0  0  0  0  0  0  0  0
   -0.4415   -7.0457   31.2041 C   0  0  0  0  0  0  0  0  0  0  0  0
   -1.2455   -8.0717   31.0576 N   0  0  0  0  0  0  0  0  0  0  0  0
   -1.6481   -8.4482   32.3578 N   0  0  0  0  0  0  0  0  0  0  0  0
   -1.0700   -7.6391   33.2311 C   0  0  0  0  0  0  0  0  0  0  0  0
   -0.9960   -7.4353   34.6421 C   0  0  0  0  0  0  0  0  0  0  0  0
   -0.2452   -6.4094   35.1282 C   0  0  0  0  0  0  0  0  0  0  0  0
    0.4874   -5.4685   34.2492 C   0  0  0  0  0  0  0  0  0  0  0  0
    0.3905   -5.7094   32.9408 C   0  0  0  0  0  0  0  0  0  0  0  0
   -0.3436   -6.7618   32.5132 N   0  0  0  0  0  0  0  0  0  0  0  0
    2.2324   -1.5008   31.2084 H   0  0  0  0  0  0  0  0  0  0  0  0
    3.7583   -1.0967   30.2435 H   0  0  0  0  0  0  0  0  0  0  0  0
    2.9060   -2.1885   28.2912 H   0  0  0  0  0  0  0  0  0  0  0  0
    0.4739   -2.4927   28.1301 H   0  0  0  0  0  0  0  0  0  0  0  0
    1.1221   -3.9343   28.8695 H   0  0  0  0  0  0  0  0  0  0  0  0
    0.0080    0.7654   30.5560 H   0  0  0  0  0  0  0  0  0  0  0  0
   -0.2290    2.6674   28.9597 H   0  0  0  0  0  0  0  0  0  0  0  0
   -1.4824    2.2967   26.8371 H   0  0  0  0  0  0  0  0  0  0  0  0
   -2.1498   -1.6625   27.7377 H   0  0  0  0  0  0  0  0  0  0  0  0
   -2.4138   -3.0109   33.3348 H   0  0  0  0  0  0  0  0  0  0  0  0
    2.2917   -4.6894   31.4851 H   0  0  0  0  0  0  0  0  0  0  0  0
    1.1926   -6.5890   29.8701 H   0  0  0  0  0  0  0  0  0  0  0  0
   -0.3048   -5.6125   29.6248 H   0  0  0  0  0  0  0  0  0  0  0  0
   -1.5161   -8.1206   35.3027 H   0  0  0  0  0  0  0  0  0  0  0  0
   -0.1729   -6.2454   36.2001 H   0  0  0  0  0  0  0  0  0  0  0  0
    1.0130   -4.6215   34.6708 H   0  0  0  0  0  0  0  0  0  0  0  0
  1  2  2  0
  2  3  1  0
  3  4  1  0
  4  5  1  0
  5  6  1  0
  6  7  2  0
  7  8  1  0
  8  9  2  0
  9 10  1  0
 10 11  2  0
  5 12  2  0
 12 13  1  0
 13 14  1  0
 13 15  2  0
 15 16  1  0
 16 17  1  0
 17 18  1  0
 18 19  2  0
 19 20  1  0
 20 21  2  0
 21 22  1  0
 22 23  2  0
 23 24  1  0
 24 25  2  0
 25 26  1  0
 15  4  1  0
 25 16  1  0
 11  6  1  0
 26 18  1  0
 26 21  1  0
  1 27  1  0
  1 28  1  0
  2 29  1  0
  3 30  1  0
  3 31  1  0
  7 32  1  0
  8 33  1  0
  9 34  1  0
 11 35  1  0
 14 36  1  0
 16 37  1  0
 17 38  1  0
 17 39  1  0
 22 40  1  0
 23 41  1  0
 24 42  1  0
M  END
>  <Energy>  (1156) 
71.696551097182692

>  <compound_id>  (1156) 
4547

>  <target_id>  (1156) 
1

>  <reference_id>  (1156) 
136

>  <inspiration_ids>  (1156) 
[162, 136]

>  <energy_score>  (1156) 
-107.01672832494756

>  <distance_score>  (1156) 
0.7342297599314295

>  <path>  (1156) 
/opt/xchem-fragalysis-2/maxwin/BulkDock/SCRATCH/505735/C4547-P136/C4547-P136.minimised.mol

>  <scratch_subdir>  (1156) 
/opt/xchem-fragalysis-2/maxwin/BulkDock/SCRATCH/505735/C4547-P136

>  <fragmenstein_runtime>  (1156) 
1.3959863185882568

>  <fragmenstein_outcome>  (1156) 
acceptable

>  <fragmenstein_mode>  (1156) 
expansion

>  <fragmenstein_error>  (1156) 


$$$$
C4545-P162
     RDKit          2D

  0  0  0  0  0  0  0  0  0  0999 V2000
M  END
>  <compound_id>  (1157) 
4545

>  <target_id>  (1157) 
1

>  <reference_id>  (1157) 
162

>  <inspiration_ids>  (1157) 
[162, 140]

>  <energy_score>  (1157) 
nan

>  <distance_score>  (1157) 
nan

>  <path>  (1157) 
/opt/xchem-fragalysis-2/maxwin/BulkDock/SCRATCH/505735/C4545-P162/C4545-P162.minimised.mol

>  <scratch_subdir>  (1157) 
/opt/xchem-fragalysis-2/maxwin/BulkDock/SCRATCH/505735/C4545-P162

>  <fragmenstein_runtime>  (1157) 
0.2273256778717041

>  <fragmenstein_outcome>  (1157) 
too distant

>  <fragmenstein_mode>  (1157) 
expansion

>  <fragmenstein_error>  (1157) 
DistanceError: hit0+hit1

$$$$
C4548-P162
     RDKit          3D

 39 44  0  0  0  0  0  0  0  0999 V2000
    2.7896   -2.3697   29.9233 C   0  0  0  0  0  0  0  0  0  0  0  0
    2.2015   -3.4493   29.3831 C   0  0  0  0  0  0  0  0  0  0  0  0
    0.9204   -4.1524   29.8269 C   0  0  0  0  0  0  0  0  0  0  0  0
    1.2461   -5.5494   30.4196 C   0  0  0  0  0  0  0  0  0  0  0  0
    0.1475   -6.3366   31.0905 C   0  0  0  0  0  0  0  0  0  0  0  0
   -0.5381   -7.3199   30.5323 N   0  0  0  0  0  0  0  0  0  0  0  0
   -1.2230   -7.9942   31.5143 N   0  0  0  0  0  0  0  0  0  0  0  0
   -0.9325   -7.4312   32.6652 C   0  0  0  0  0  0  0  0  0  0  0  0
   -1.2656   -7.7659   34.0041 C   0  0  0  0  0  0  0  0  0  0  0  0
   -0.8191   -7.0090   35.0198 C   0  0  0  0  0  0  0  0  0  0  0  0
   -0.0768   -5.7917   34.7670 C   0  0  0  0  0  0  0  0  0  0  0  0
    0.2296   -5.4451   33.5004 C   0  0  0  0  0  0  0  0  0  0  0  0
   -0.1444   -6.3047   32.4526 N   0  0  0  0  0  0  0  0  0  0  0  0
    1.0309   -3.9471   33.2216 S   0  0  0  0  0  0  0  0  0  0  0  0
   -0.1137   -3.2705   32.0844 C   0  0  0  0  0  0  0  0  0  0  0  0
   -1.1598   -2.5445   32.4896 N   0  0  0  0  0  0  0  0  0  0  0  0
   -1.5452   -1.9599   31.3532 N   0  0  0  0  0  0  0  0  0  0  0  0
   -0.7362   -2.2187   30.2902 C   0  0  0  0  0  0  0  0  0  0  0  0
    0.0418   -3.2910   30.6706 C   0  0  0  0  0  0  0  0  0  0  0  0
   -0.8762   -1.2398   29.2459 C   0  0  0  0  0  0  0  0  0  0  0  0
   -0.0305   -0.9190   28.2160 C   0  0  0  0  0  0  0  0  0  0  0  0
   -0.1665    0.2049   27.4673 N   0  0  0  0  0  0  0  0  0  0  0  0
   -1.2312    0.9912   27.7008 C   0  0  0  0  0  0  0  0  0  0  0  0
   -2.1199    0.7571   28.7238 C   0  0  0  0  0  0  0  0  0  0  0  0
   -1.9005   -0.3459   29.5316 C   0  0  0  0  0  0  0  0  0  0  0  0
   -2.7297   -0.7286   31.1008 S   0  0  0  0  0  0  0  0  0  0  0  0
   -2.5612    0.4524   32.0116 O   0  0  0  0  0  0  0  0  0  0  0  0
    3.7019   -1.9647   29.4926 H   0  0  0  0  0  0  0  0  0  0  0  0
    2.3964   -1.8536   30.7937 H   0  0  0  0  0  0  0  0  0  0  0  0
    2.6783   -3.8893   28.5069 H   0  0  0  0  0  0  0  0  0  0  0  0
    0.3443   -4.3322   28.9082 H   0  0  0  0  0  0  0  0  0  0  0  0
    2.0979   -5.4804   31.1072 H   0  0  0  0  0  0  0  0  0  0  0  0
    1.6248   -6.1687   29.5945 H   0  0  0  0  0  0  0  0  0  0  0  0
   -1.8699   -8.6439   34.1862 H   0  0  0  0  0  0  0  0  0  0  0  0
   -1.0480   -7.2702   36.0493 H   0  0  0  0  0  0  0  0  0  0  0  0
    0.1605   -5.1646   35.6224 H   0  0  0  0  0  0  0  0  0  0  0  0
    0.8299   -1.5227   27.9601 H   0  0  0  0  0  0  0  0  0  0  0  0
   -1.3344    1.8545   27.0501 H   0  0  0  0  0  0  0  0  0  0  0  0
   -2.9134    1.4643   28.8917 H   0  0  0  0  0  0  0  0  0  0  0  0
  1  2  2  0
  2  3  1  0
  3  4  1  0
  4  5  1  0
  5  6  2  0
  6  7  1  0
  7  8  2  0
  8  9  1  0
  9 10  2  0
 10 11  1  0
 11 12  2  0
 12 13  1  0
 12 14  1  0
 14 15  1  0
 15 16  2  0
 16 17  1  0
 17 18  1  0
 18 19  2  0
 18 20  1  0
 20 21  2  0
 21 22  1  0
 22 23  2  0
 23 24  1  0
 24 25  2  0
 25 26  1  0
 26 27  2  0
 19  3  1  0
 25 20  1  0
 13  5  1  0
 19 15  1  0
 13  8  1  0
 26 17  1  0
  1 28  1  0
  1 29  1  0
  2 30  1  0
  3 31  1  0
  4 32  1  0
  4 33  1  0
  9 34  1  0
 10 35  1  0
 11 36  1  0
 21 37  1  0
 23 38  1  0
 24 39  1  0
M  END
>  <Energy>  (1158) 
121.02372016308432

>  <compound_id>  (1158) 
4548

>  <target_id>  (1158) 
1

>  <reference_id>  (1158) 
162

>  <inspiration_ids>  (1158) 
[162, 144]

>  <energy_score>  (1158) 
-72.52201205416554

>  <distance_score>  (1158) 
1.1741583870791548

>  <path>  (1158) 
/opt/xchem-fragalysis-2/maxwin/BulkDock/SCRATCH/505735/C4548-P162/C4548-P162.minimised.mol

>  <scratch_subdir>  (1158) 
/opt/xchem-fragalysis-2/maxwin/BulkDock/SCRATCH/505735/C4548-P162

>  <fragmenstein_runtime>  (1158) 
2.148038387298584

>  <fragmenstein_outcome>  (1158) 
too moved

>  <fragmenstein_mode>  (1158) 
expansion

>  <fragmenstein_error>  (1158) 


$$$$
C4548-P144
     RDKit          3D

 39 44  0  0  0  0  0  0  0  0999 V2000
    2.7654   -2.5933   29.9084 C   0  0  0  0  0  0  0  0  0  0  0  0
    2.0771   -3.6188   29.3789 C   0  0  0  0  0  0  0  0  0  0  0  0
    0.7262   -4.1938   29.8201 C   0  0  0  0  0  0  0  0  0  0  0  0
    0.9291   -5.5806   30.4245 C   0  0  0  0  0  0  0  0  0  0  0  0
   -0.2061   -6.2959   31.0886 C   0  0  0  0  0  0  0  0  0  0  0  0
   -0.9416   -7.2456   30.5387 N   0  0  0  0  0  0  0  0  0  0  0  0
   -1.5961   -7.9207   31.5379 N   0  0  0  0  0  0  0  0  0  0  0  0
   -1.2497   -7.3803   32.6845 C   0  0  0  0  0  0  0  0  0  0  0  0
   -1.5224   -7.7396   34.0291 C   0  0  0  0  0  0  0  0  0  0  0  0
   -0.9848   -7.0304   35.0353 C   0  0  0  0  0  0  0  0  0  0  0  0
   -0.2245   -5.8264   34.7758 C   0  0  0  0  0  0  0  0  0  0  0  0
    0.0179   -5.4471   33.5046 C   0  0  0  0  0  0  0  0  0  0  0  0
   -0.4440   -6.2694   32.4592 N   0  0  0  0  0  0  0  0  0  0  0  0
    0.8955   -3.9862   33.2453 S   0  0  0  0  0  0  0  0  0  0  0  0
   -0.1736   -3.2060   32.1018 C   0  0  0  0  0  0  0  0  0  0  0  0
   -1.0658   -2.2959   32.5060 N   0  0  0  0  0  0  0  0  0  0  0  0
   -1.3518   -1.6620   31.3659 N   0  0  0  0  0  0  0  0  0  0  0  0
   -0.6667   -2.1150   30.2872 C   0  0  0  0  0  0  0  0  0  0  0  0
   -0.0391   -3.2660   30.6862 C   0  0  0  0  0  0  0  0  0  0  0  0
   -0.6419   -1.1860   29.1977 C   0  0  0  0  0  0  0  0  0  0  0  0
    0.1618   -1.1355   28.0897 C   0  0  0  0  0  0  0  0  0  0  0  0
    0.2170   -0.0678   27.2614 N   0  0  0  0  0  0  0  0  0  0  0  0
   -0.6499    0.9269   27.4714 C   0  0  0  0  0  0  0  0  0  0  0  0
   -1.4791    0.9538   28.5637 C   0  0  0  0  0  0  0  0  0  0  0  0
   -1.4170   -0.0794   29.4770 C   0  0  0  0  0  0  0  0  0  0  0  0
   -2.1875   -0.1738   31.1215 S   0  0  0  0  0  0  0  0  0  0  0  0
   -1.6456    0.9562   31.9463 O   0  0  0  0  0  0  0  0  0  0  0  0
    3.7132   -2.2838   29.4746 H   0  0  0  0  0  0  0  0  0  0  0  0
    2.4232   -2.0290   30.7701 H   0  0  0  0  0  0  0  0  0  0  0  0
    2.5122   -4.1123   28.5088 H   0  0  0  0  0  0  0  0  0  0  0  0
    0.1265   -4.3227   28.9075 H   0  0  0  0  0  0  0  0  0  0  0  0
    1.7252   -5.5059   31.1596 H   0  0  0  0  0  0  0  0  0  0  0  0
    1.3204   -6.2275   29.6353 H   0  0  0  0  0  0  0  0  0  0  0  0
   -2.1401   -8.6071   34.2165 H   0  0  0  0  0  0  0  0  0  0  0  0
   -1.1362   -7.3246   36.0692 H   0  0  0  0  0  0  0  0  0  0  0  0
    0.0939   -5.2419   35.6353 H   0  0  0  0  0  0  0  0  0  0  0  0
    0.8361   -1.9342   27.8174 H   0  0  0  0  0  0  0  0  0  0  0  0
   -0.6476    1.7290   26.7400 H   0  0  0  0  0  0  0  0  0  0  0  0
   -2.1312    1.7929   28.6564 H   0  0  0  0  0  0  0  0  0  0  0  0
  1  2  2  0
  2  3  1  0
  3  4  1  0
  4  5  1  0
  5  6  2  0
  6  7  1  0
  7  8  2  0
  8  9  1  0
  9 10  2  0
 10 11  1  0
 11 12  2  0
 12 13  1  0
 12 14  1  0
 14 15  1  0
 15 16  2  0
 16 17  1  0
 17 18  1  0
 18 19  2  0
 18 20  1  0
 20 21  2  0
 21 22  1  0
 22 23  2  0
 23 24  1  0
 24 25  2  0
 25 26  1  0
 26 27  2  0
 19  3  1  0
 25 20  1  0
 13  5  1  0
 19 15  1  0
 13  8  1  0
 26 17  1  0
  1 28  1  0
  1 29  1  0
  2 30  1  0
  3 31  1  0
  4 32  1  0
  4 33  1  0
  9 34  1  0
 10 35  1  0
 11 36  1  0
 21 37  1  0
 23 38  1  0
 24 39  1  0
M  END
>  <Energy>  (1159) 
124.23197943250133

>  <compound_id>  (1159) 
4548

>  <target_id>  (1159) 
1

>  <reference_id>  (1159) 
144

>  <inspiration_ids>  (1159) 
[162, 144]

>  <energy_score>  (1159) 
-69.31375278474627

>  <distance_score>  (1159) 
1.2530522964583537

>  <path>  (1159) 
/opt/xchem-fragalysis-2/maxwin/BulkDock/SCRATCH/505735/C4548-P144/C4548-P144.minimised.mol

>  <scratch_subdir>  (1159) 
/opt/xchem-fragalysis-2/maxwin/BulkDock/SCRATCH/505735/C4548-P144

>  <fragmenstein_runtime>  (1159) 
2.7806010246276855

>  <fragmenstein_outcome>  (1159) 
too moved

>  <fragmenstein_mode>  (1159) 
expansion

>  <fragmenstein_error>  (1159) 


$$$$
C4550-P162
     RDKit          3D

 43 47  0  0  0  0  0  0  0  0999 V2000
    2.4978   -2.2215   29.7973 C   0  0  0  0  0  0  0  0  0  0  0  0
    1.7610   -3.1904   29.2316 C   0  0  0  0  0  0  0  0  0  0  0  0
    0.5917   -3.9628   29.8430 C   0  0  0  0  0  0  0  0  0  0  0  0
    1.0776   -5.3565   30.3446 C   0  0  0  0  0  0  0  0  0  0  0  0
    0.0956   -6.2459   31.0722 C   0  0  0  0  0  0  0  0  0  0  0  0
   -0.5511   -7.2657   30.5320 N   0  0  0  0  0  0  0  0  0  0  0  0
   -1.1881   -7.9672   31.5258 N   0  0  0  0  0  0  0  0  0  0  0  0
   -0.8965   -7.3946   32.6707 C   0  0  0  0  0  0  0  0  0  0  0  0
   -1.2103   -7.7367   34.0126 C   0  0  0  0  0  0  0  0  0  0  0  0
   -0.7446   -6.9881   35.0257 C   0  0  0  0  0  0  0  0  0  0  0  0
    0.0131   -5.7808   34.7691 C   0  0  0  0  0  0  0  0  0  0  0  0
    0.2923   -5.4225   33.4993 C   0  0  0  0  0  0  0  0  0  0  0  0
   -0.1262   -6.2569   32.4481 N   0  0  0  0  0  0  0  0  0  0  0  0
    1.1211   -3.9411   33.2103 S   0  0  0  0  0  0  0  0  0  0  0  0
   -0.1288   -3.1901   32.2461 C   0  0  0  0  0  0  0  0  0  0  0  0
   -1.0979   -2.4905   32.8266 N   0  0  0  0  0  0  0  0  0  0  0  0
   -1.6652   -1.8338   31.7963 N   0  0  0  0  0  0  0  0  0  0  0  0
   -2.7155   -0.8674   32.0878 C   0  0  0  0  0  0  0  0  0  0  0  0
   -3.5254   -1.3417   33.1639 O   0  0  0  0  0  0  0  0  0  0  0  0
   -1.0434   -2.0682   30.5933 C   0  0  0  0  0  0  0  0  0  0  0  0
   -1.1762   -1.1467   29.4677 C   0  0  0  0  0  0  0  0  0  0  0  0
   -0.4545    0.0548   29.4863 C   0  0  0  0  0  0  0  0  0  0  0  0
   -0.6767    1.0249   28.5122 C   0  0  0  0  0  0  0  0  0  0  0  0
   -1.6306    0.7678   27.5481 C   0  0  0  0  0  0  0  0  0  0  0  0
   -2.3333   -0.3793   27.4932 N   0  0  0  0  0  0  0  0  0  0  0  0
   -2.0785   -1.3207   28.4339 C   0  0  0  0  0  0  0  0  0  0  0  0
   -0.1866   -3.1442   30.8345 C   0  0  0  0  0  0  0  0  0  0  0  0
    3.2932   -1.7381   29.2367 H   0  0  0  0  0  0  0  0  0  0  0  0
    2.3314   -1.8766   30.8121 H   0  0  0  0  0  0  0  0  0  0  0  0
    1.9947   -3.4633   28.2037 H   0  0  0  0  0  0  0  0  0  0  0  0
   -0.1125   -4.1559   29.0205 H   0  0  0  0  0  0  0  0  0  0  0  0
    1.9877   -5.2565   30.9484 H   0  0  0  0  0  0  0  0  0  0  0  0
    1.4216   -5.9193   29.4651 H   0  0  0  0  0  0  0  0  0  0  0  0
   -1.8165   -8.6132   34.1974 H   0  0  0  0  0  0  0  0  0  0  0  0
   -0.9619   -7.2539   36.0567 H   0  0  0  0  0  0  0  0  0  0  0  0
    0.2884   -5.1712   35.6253 H   0  0  0  0  0  0  0  0  0  0  0  0
   -3.3403   -0.7297   31.2048 H   0  0  0  0  0  0  0  0  0  0  0  0
   -2.2355    0.0712   32.3779 H   0  0  0  0  0  0  0  0  0  0  0  0
   -2.9494   -1.9693   33.6563 H   0  0  0  0  0  0  0  0  0  0  0  0
    0.2777    0.2457   30.2671 H   0  0  0  0  0  0  0  0  0  0  0  0
   -0.1311    1.9616   28.5136 H   0  0  0  0  0  0  0  0  0  0  0  0
   -1.8682    1.4935   26.7763 H   0  0  0  0  0  0  0  0  0  0  0  0
   -2.6782   -2.2178   28.3458 H   0  0  0  0  0  0  0  0  0  0  0  0
  1  2  2  0
  2  3  1  0
  3  4  1  0
  4  5  1  0
  5  6  2  0
  6  7  1  0
  7  8  2  0
  8  9  1  0
  9 10  2  0
 10 11  1  0
 11 12  2  0
 12 13  1  0
 12 14  1  0
 14 15  1  0
 15 16  2  0
 16 17  1  0
 17 18  1  0
 18 19  1  0
 17 20  1  0
 20 21  1  0
 21 22  2  0
 22 23  1  0
 23 24  2  0
 24 25  1  0
 25 26  2  0
 20 27  2  0
 27  3  1  0
 13  5  1  0
 27 15  1  0
 13  8  1  0
 26 21  1  0
  1 28  1  0
  1 29  1  0
  2 30  1  0
  3 31  1  0
  4 32  1  0
  4 33  1  0
  9 34  1  0
 10 35  1  0
 11 36  1  0
 18 37  1  0
 18 38  1  0
 19 39  1  0
 22 40  1  0
 23 41  1  0
 24 42  1  0
 26 43  1  0
M  END
>  <Energy>  (1160) 
108.43823541925367

>  <compound_id>  (1160) 
4550

>  <target_id>  (1160) 
1

>  <reference_id>  (1160) 
162

>  <inspiration_ids>  (1160) 
[162, 148]

>  <energy_score>  (1160) 
-40.472452736717685

>  <distance_score>  (1160) 
1.1210476794066928

>  <path>  (1160) 
/opt/xchem-fragalysis-2/maxwin/BulkDock/SCRATCH/505735/C4550-P162/C4550-P162.minimised.mol

>  <scratch_subdir>  (1160) 
/opt/xchem-fragalysis-2/maxwin/BulkDock/SCRATCH/505735/C4550-P162

>  <fragmenstein_runtime>  (1160) 
2.9102976322174072

>  <fragmenstein_outcome>  (1160) 
too moved

>  <fragmenstein_mode>  (1160) 
expansion

>  <fragmenstein_error>  (1160) 


$$$$
C4550-P148
     RDKit          3D

 43 47  0  0  0  0  0  0  0  0999 V2000
    2.5382   -2.2061   29.7471 C   0  0  0  0  0  0  0  0  0  0  0  0
    1.8067   -3.1979   29.2150 C   0  0  0  0  0  0  0  0  0  0  0  0
    0.6268   -3.9404   29.8405 C   0  0  0  0  0  0  0  0  0  0  0  0
    1.0824   -5.3537   30.3225 C   0  0  0  0  0  0  0  0  0  0  0  0
    0.0752   -6.2338   31.0297 C   0  0  0  0  0  0  0  0  0  0  0  0
   -0.5878   -7.2371   30.4757 N   0  0  0  0  0  0  0  0  0  0  0  0
   -1.2998   -7.8945   31.4487 N   0  0  0  0  0  0  0  0  0  0  0  0
   -1.0328   -7.3175   32.5973 C   0  0  0  0  0  0  0  0  0  0  0  0
   -1.4470   -7.6057   33.9238 C   0  0  0  0  0  0  0  0  0  0  0  0
   -0.9516   -6.8992   34.9532 C   0  0  0  0  0  0  0  0  0  0  0  0
   -0.0718   -5.7729   34.7264 C   0  0  0  0  0  0  0  0  0  0  0  0
    0.2791   -5.4452   33.4672 C   0  0  0  0  0  0  0  0  0  0  0  0
   -0.1724   -6.2422   32.4008 N   0  0  0  0  0  0  0  0  0  0  0  0
    1.2092   -4.0223   33.2000 S   0  0  0  0  0  0  0  0  0  0  0  0
   -0.0159   -3.1928   32.2699 C   0  0  0  0  0  0  0  0  0  0  0  0
   -0.9677   -2.5034   32.8862 N   0  0  0  0  0  0  0  0  0  0  0  0
   -1.5242   -1.7905   31.8902 N   0  0  0  0  0  0  0  0  0  0  0  0
   -2.5761   -0.8497   32.2398 C   0  0  0  0  0  0  0  0  0  0  0  0
   -3.6010   -1.5331   32.9588 O   0  0  0  0  0  0  0  0  0  0  0  0
   -0.9131   -1.9880   30.6725 C   0  0  0  0  0  0  0  0  0  0  0  0
   -1.0070   -1.0124   29.5861 C   0  0  0  0  0  0  0  0  0  0  0  0
   -0.4507    0.2620   29.7724 C   0  0  0  0  0  0  0  0  0  0  0  0
   -0.6151    1.2568   28.8110 C   0  0  0  0  0  0  0  0  0  0  0  0
   -1.3404    0.9495   27.6805 C   0  0  0  0  0  0  0  0  0  0  0  0
   -1.8607   -0.2699   27.4539 N   0  0  0  0  0  0  0  0  0  0  0  0
   -1.6667   -1.2315   28.3920 C   0  0  0  0  0  0  0  0  0  0  0  0
   -0.1031   -3.1116   30.8619 C   0  0  0  0  0  0  0  0  0  0  0  0
    3.3418   -1.7493   29.1758 H   0  0  0  0  0  0  0  0  0  0  0  0
    2.3592   -1.8129   30.7420 H   0  0  0  0  0  0  0  0  0  0  0  0
    2.0563   -3.5162   28.2036 H   0  0  0  0  0  0  0  0  0  0  0  0
   -0.0995   -4.1073   29.0308 H   0  0  0  0  0  0  0  0  0  0  0  0
    1.9915   -5.2817   30.9303 H   0  0  0  0  0  0  0  0  0  0  0  0
    1.4247   -5.9098   29.4415 H   0  0  0  0  0  0  0  0  0  0  0  0
   -2.1566   -8.4070   34.0761 H   0  0  0  0  0  0  0  0  0  0  0  0
   -1.2365   -7.1209   35.9761 H   0  0  0  0  0  0  0  0  0  0  0  0
    0.2214   -5.1806   35.5894 H   0  0  0  0  0  0  0  0  0  0  0  0
   -3.0007   -0.4094   31.3379 H   0  0  0  0  0  0  0  0  0  0  0  0
   -2.1385   -0.0716   32.8718 H   0  0  0  0  0  0  0  0  0  0  0  0
   -3.1370   -2.1985   33.5134 H   0  0  0  0  0  0  0  0  0  0  0  0
    0.1125    0.4920   30.6739 H   0  0  0  0  0  0  0  0  0  0  0  0
   -0.2033    2.2506   28.9489 H   0  0  0  0  0  0  0  0  0  0  0  0
   -1.5294    1.6898   26.9095 H   0  0  0  0  0  0  0  0  0  0  0  0
   -2.1057   -2.1905   28.1491 H   0  0  0  0  0  0  0  0  0  0  0  0
  1  2  2  0
  2  3  1  0
  3  4  1  0
  4  5  1  0
  5  6  2  0
  6  7  1  0
  7  8  2  0
  8  9  1  0
  9 10  2  0
 10 11  1  0
 11 12  2  0
 12 13  1  0
 12 14  1  0
 14 15  1  0
 15 16  2  0
 16 17  1  0
 17 18  1  0
 18 19  1  0
 17 20  1  0
 20 21  1  0
 21 22  2  0
 22 23  1  0
 23 24  2  0
 24 25  1  0
 25 26  2  0
 20 27  2  0
 27  3  1  0
 13  5  1  0
 27 15  1  0
 13  8  1  0
 26 21  1  0
  1 28  1  0
  1 29  1  0
  2 30  1  0
  3 31  1  0
  4 32  1  0
  4 33  1  0
  9 34  1  0
 10 35  1  0
 11 36  1  0
 18 37  1  0
 18 38  1  0
 19 39  1  0
 22 40  1  0
 23 41  1  0
 24 42  1  0
 26 43  1  0
M  END
>  <Energy>  (1161) 
110.14688018305084

>  <compound_id>  (1161) 
4550

>  <target_id>  (1161) 
1

>  <reference_id>  (1161) 
148

>  <inspiration_ids>  (1161) 
[162, 148]

>  <energy_score>  (1161) 
-38.76380797291998

>  <distance_score>  (1161) 
1.1655449089094518

>  <path>  (1161) 
/opt/xchem-fragalysis-2/maxwin/BulkDock/SCRATCH/505735/C4550-P148/C4550-P148.minimised.mol

>  <scratch_subdir>  (1161) 
/opt/xchem-fragalysis-2/maxwin/BulkDock/SCRATCH/505735/C4550-P148

>  <fragmenstein_runtime>  (1161) 
2.5759966373443604

>  <fragmenstein_outcome>  (1161) 
too moved

>  <fragmenstein_mode>  (1161) 
expansion

>  <fragmenstein_error>  (1161) 


$$$$
C4550-P162
     RDKit          3D

 43 47  0  0  0  0  0  0  0  0999 V2000
    2.4903   -2.2552   29.7795 C   0  0  0  0  0  0  0  0  0  0  0  0
    1.7643   -3.2391   29.2257 C   0  0  0  0  0  0  0  0  0  0  0  0
    0.5839   -3.9995   29.8328 C   0  0  0  0  0  0  0  0  0  0  0  0
    1.0515   -5.4043   30.3273 C   0  0  0  0  0  0  0  0  0  0  0  0
    0.0654   -6.2796   31.0664 C   0  0  0  0  0  0  0  0  0  0  0  0
   -0.6030   -7.2908   30.5356 N   0  0  0  0  0  0  0  0  0  0  0  0
   -1.2355   -7.9837   31.5383 N   0  0  0  0  0  0  0  0  0  0  0  0
   -0.9214   -7.4134   32.6786 C   0  0  0  0  0  0  0  0  0  0  0  0
   -1.2257   -7.7479   34.0248 C   0  0  0  0  0  0  0  0  0  0  0  0
   -0.7420   -7.0018   35.0313 C   0  0  0  0  0  0  0  0  0  0  0  0
    0.0276   -5.8047   34.7638 C   0  0  0  0  0  0  0  0  0  0  0  0
    0.2994   -5.4537   33.4904 C   0  0  0  0  0  0  0  0  0  0  0  0
   -0.1395   -6.2857   32.4451 N   0  0  0  0  0  0  0  0  0  0  0  0
    1.1398   -3.9809   33.1907 S   0  0  0  0  0  0  0  0  0  0  0  0
   -0.1141   -3.2208   32.2393 C   0  0  0  0  0  0  0  0  0  0  0  0
   -1.0749   -2.5167   32.8283 N   0  0  0  0  0  0  0  0  0  0  0  0
   -1.6492   -1.8587   31.8025 N   0  0  0  0  0  0  0  0  0  0  0  0
   -2.6975   -0.8919   32.1007 C   0  0  0  0  0  0  0  0  0  0  0  0
   -3.4912   -1.3580   33.1925 O   0  0  0  0  0  0  0  0  0  0  0  0
   -1.0359   -2.0935   30.5950 C   0  0  0  0  0  0  0  0  0  0  0  0
   -1.1730   -1.1689   29.4722 C   0  0  0  0  0  0  0  0  0  0  0  0
   -0.4477    0.0306   29.4879 C   0  0  0  0  0  0  0  0  0  0  0  0
   -0.6722    1.0025   28.5158 C   0  0  0  0  0  0  0  0  0  0  0  0
   -1.6320    0.7492   27.5565 C   0  0  0  0  0  0  0  0  0  0  0  0
   -2.3402   -0.3944   27.5071 N   0  0  0  0  0  0  0  0  0  0  0  0
   -2.0833   -1.3375   28.4449 C   0  0  0  0  0  0  0  0  0  0  0  0
   -0.1840   -3.1753   30.8286 C   0  0  0  0  0  0  0  0  0  0  0  0
    3.2967   -1.7870   29.2221 H   0  0  0  0  0  0  0  0  0  0  0  0
    2.3053   -1.8842   30.7818 H   0  0  0  0  0  0  0  0  0  0  0  0
    2.0185   -3.5398   28.2104 H   0  0  0  0  0  0  0  0  0  0  0  0
   -0.1224   -4.1785   29.0091 H   0  0  0  0  0  0  0  0  0  0  0  0
    1.9684   -5.3178   30.9230 H   0  0  0  0  0  0  0  0  0  0  0  0
    1.3806   -5.9706   29.4449 H   0  0  0  0  0  0  0  0  0  0  0  0
   -1.8414   -8.6157   34.2186 H   0  0  0  0  0  0  0  0  0  0  0  0
   -0.9537   -7.2611   36.0651 H   0  0  0  0  0  0  0  0  0  0  0  0
    0.3170   -5.1951   35.6154 H   0  0  0  0  0  0  0  0  0  0  0  0
   -3.3351   -0.7642   31.2253 H   0  0  0  0  0  0  0  0  0  0  0  0
   -2.2156    0.0503   32.3754 H   0  0  0  0  0  0  0  0  0  0  0  0
   -2.9121   -1.9900   33.6755 H   0  0  0  0  0  0  0  0  0  0  0  0
    0.2892    0.2185   30.2649 H   0  0  0  0  0  0  0  0  0  0  0  0
   -0.1237    1.9373   28.5144 H   0  0  0  0  0  0  0  0  0  0  0  0
   -1.8705    1.4746   26.7847 H   0  0  0  0  0  0  0  0  0  0  0  0
   -2.6887   -2.2310   28.3605 H   0  0  0  0  0  0  0  0  0  0  0  0
  1  2  2  0
  2  3  1  0
  3  4  1  0
  4  5  1  0
  5  6  2  0
  6  7  1  0
  7  8  2  0
  8  9  1  0
  9 10  2  0
 10 11  1  0
 11 12  2  0
 12 13  1  0
 12 14  1  0
 14 15  1  0
 15 16  2  0
 16 17  1  0
 17 18  1  0
 18 19  1  0
 17 20  1  0
 20 21  1  0
 21 22  2  0
 22 23  1  0
 23 24  2  0
 24 25  1  0
 25 26  2  0
 20 27  2  0
 27  3  1  0
 13  5  1  0
 27 15  1  0
 13  8  1  0
 26 21  1  0
  1 28  1  0
  1 29  1  0
  2 30  1  0
  3 31  1  0
  4 32  1  0
  4 33  1  0
  9 34  1  0
 10 35  1  0
 11 36  1  0
 18 37  1  0
 18 38  1  0
 19 39  1  0
 22 40  1  0
 23 41  1  0
 24 42  1  0
 26 43  1  0
M  END
>  <Energy>  (1162) 
108.57135302986696

>  <compound_id>  (1162) 
4550

>  <target_id>  (1162) 
1

>  <reference_id>  (1162) 
162

>  <inspiration_ids>  (1162) 
[162, 149]

>  <energy_score>  (1162) 
-72.097333292097

>  <distance_score>  (1162) 
0.9830288243648302

>  <path>  (1162) 
/opt/xchem-fragalysis-2/maxwin/BulkDock/SCRATCH/505735/C4550-P162/C4550-P162.minimised.mol

>  <scratch_subdir>  (1162) 
/opt/xchem-fragalysis-2/maxwin/BulkDock/SCRATCH/505735/C4550-P162

>  <fragmenstein_runtime>  (1162) 
1.6225571632385254

>  <fragmenstein_outcome>  (1162) 
acceptable

>  <fragmenstein_mode>  (1162) 
expansion

>  <fragmenstein_error>  (1162) 


$$$$
C4550-P149
     RDKit          3D

 43 47  0  0  0  0  0  0  0  0999 V2000
    2.5188   -2.1809   29.7544 C   0  0  0  0  0  0  0  0  0  0  0  0
    1.7816   -3.1728   29.2304 C   0  0  0  0  0  0  0  0  0  0  0  0
    0.5838   -3.8906   29.8533 C   0  0  0  0  0  0  0  0  0  0  0  0
    1.0210   -5.2998   30.3505 C   0  0  0  0  0  0  0  0  0  0  0  0
    0.0043   -6.1761   31.0419 C   0  0  0  0  0  0  0  0  0  0  0  0
   -0.6751   -7.1603   30.4745 N   0  0  0  0  0  0  0  0  0  0  0  0
   -1.3472   -7.8566   31.4484 N   0  0  0  0  0  0  0  0  0  0  0  0
   -1.0516   -7.3126   32.6064 C   0  0  0  0  0  0  0  0  0  0  0  0
   -1.4082   -7.6552   33.9368 C   0  0  0  0  0  0  0  0  0  0  0  0
   -0.9250   -6.9434   34.9684 C   0  0  0  0  0  0  0  0  0  0  0  0
   -0.1033   -5.7723   34.7439 C   0  0  0  0  0  0  0  0  0  0  0  0
    0.2159   -5.4108   33.4848 C   0  0  0  0  0  0  0  0  0  0  0  0
   -0.2280   -6.2074   32.4146 N   0  0  0  0  0  0  0  0  0  0  0  0
    1.1305   -3.9730   33.2321 S   0  0  0  0  0  0  0  0  0  0  0  0
   -0.0684   -3.1296   32.2793 C   0  0  0  0  0  0  0  0  0  0  0  0
   -0.9874   -2.3883   32.8847 N   0  0  0  0  0  0  0  0  0  0  0  0
   -1.5260   -1.6775   31.8750 N   0  0  0  0  0  0  0  0  0  0  0  0
   -2.5567   -0.7065   32.2133 C   0  0  0  0  0  0  0  0  0  0  0  0
   -2.1304    0.0712   33.3320 O   0  0  0  0  0  0  0  0  0  0  0  0
   -0.8998   -1.8908   30.6656 C   0  0  0  0  0  0  0  0  0  0  0  0
   -0.9541   -0.9146   29.5716 C   0  0  0  0  0  0  0  0  0  0  0  0
   -0.4628    0.3801   29.7932 C   0  0  0  0  0  0  0  0  0  0  0  0
   -0.6232    1.3768   28.8323 C   0  0  0  0  0  0  0  0  0  0  0  0
   -1.2845    1.0542   27.6673 C   0  0  0  0  0  0  0  0  0  0  0  0
   -1.7344   -0.1842   27.4009 N   0  0  0  0  0  0  0  0  0  0  0  0
   -1.5273   -1.1487   28.3345 C   0  0  0  0  0  0  0  0  0  0  0  0
   -0.1347   -3.0444   30.8679 C   0  0  0  0  0  0  0  0  0  0  0  0
    3.3362   -1.7449   29.1872 H   0  0  0  0  0  0  0  0  0  0  0  0
    2.3292   -1.7664   30.7389 H   0  0  0  0  0  0  0  0  0  0  0  0
    2.0418   -3.5152   28.2300 H   0  0  0  0  0  0  0  0  0  0  0  0
   -0.1405   -4.0533   29.0415 H   0  0  0  0  0  0  0  0  0  0  0  0
    1.9081   -5.2115   30.9844 H   0  0  0  0  0  0  0  0  0  0  0  0
    1.3949   -5.8611   29.4880 H   0  0  0  0  0  0  0  0  0  0  0  0
   -2.0602   -8.5040   34.0943 H   0  0  0  0  0  0  0  0  0  0  0  0
   -1.1639   -7.2171   35.9919 H   0  0  0  0  0  0  0  0  0  0  0  0
    0.1930   -5.1923   35.6139 H   0  0  0  0  0  0  0  0  0  0  0  0
   -3.4604   -1.2626   32.4783 H   0  0  0  0  0  0  0  0  0  0  0  0
   -2.7504   -0.0460   31.3704 H   0  0  0  0  0  0  0  0  0  0  0  0
   -1.6663   -0.5773   33.9040 H   0  0  0  0  0  0  0  0  0  0  0  0
    0.0310    0.6302   30.7299 H   0  0  0  0  0  0  0  0  0  0  0  0
   -0.2681    2.3872   29.0029 H   0  0  0  0  0  0  0  0  0  0  0  0
   -1.4776    1.7977   26.9003 H   0  0  0  0  0  0  0  0  0  0  0  0
   -1.8991   -2.1251   28.0546 H   0  0  0  0  0  0  0  0  0  0  0  0
  1  2  2  0
  2  3  1  0
  3  4  1  0
  4  5  1  0
  5  6  2  0
  6  7  1  0
  7  8  2  0
  8  9  1  0
  9 10  2  0
 10 11  1  0
 11 12  2  0
 12 13  1  0
 12 14  1  0
 14 15  1  0
 15 16  2  0
 16 17  1  0
 17 18  1  0
 18 19  1  0
 17 20  1  0
 20 21  1  0
 21 22  2  0
 22 23  1  0
 23 24  2  0
 24 25  1  0
 25 26  2  0
 20 27  2  0
 27  3  1  0
 13  5  1  0
 27 15  1  0
 13  8  1  0
 26 21  1  0
  1 28  1  0
  1 29  1  0
  2 30  1  0
  3 31  1  0
  4 32  1  0
  4 33  1  0
  9 34  1  0
 10 35  1  0
 11 36  1  0
 18 37  1  0
 18 38  1  0
 19 39  1  0
 22 40  1  0
 23 41  1  0
 24 42  1  0
 26 43  1  0
M  END
>  <Energy>  (1163) 
109.66999037690182

>  <compound_id>  (1163) 
4550

>  <target_id>  (1163) 
1

>  <reference_id>  (1163) 
149

>  <inspiration_ids>  (1163) 
[162, 149]

>  <energy_score>  (1163) 
-70.99869594506401

>  <distance_score>  (1163) 
1.057634846507748

>  <path>  (1163) 
/opt/xchem-fragalysis-2/maxwin/BulkDock/SCRATCH/505735/C4550-P149/C4550-P149.minimised.mol

>  <scratch_subdir>  (1163) 
/opt/xchem-fragalysis-2/maxwin/BulkDock/SCRATCH/505735/C4550-P149

>  <fragmenstein_runtime>  (1163) 
2.3103597164154053

>  <fragmenstein_outcome>  (1163) 
too moved

>  <fragmenstein_mode>  (1163) 
expansion

>  <fragmenstein_error>  (1163) 


$$$$
C4544-P162
     RDKit          3D

 40 44  0  0  0  0  0  0  0  0999 V2000
    2.4438   -2.1704   28.9832 C   0  0  0  0  0  0  0  0  0  0  0  0
    1.4306   -3.0286   29.1783 C   0  0  0  0  0  0  0  0  0  0  0  0
    1.1161   -3.6673   30.5102 C   0  0  0  0  0  0  0  0  0  0  0  0
    1.1445   -5.2296   30.4990 C   0  0  0  0  0  0  0  0  0  0  0  0
    0.1248   -6.0908   31.2248 C   0  0  0  0  0  0  0  0  0  0  0  0
   -0.5205   -7.0721   30.6080 N   0  0  0  0  0  0  0  0  0  0  0  0
   -1.1694   -7.8443   31.5271 N   0  0  0  0  0  0  0  0  0  0  0  0
   -0.8935   -7.3610   32.7128 C   0  0  0  0  0  0  0  0  0  0  0  0
   -1.2447   -7.8199   34.0068 C   0  0  0  0  0  0  0  0  0  0  0  0
   -0.8055   -7.1757   35.0968 C   0  0  0  0  0  0  0  0  0  0  0  0
   -0.0793   -5.9353   34.9681 C   0  0  0  0  0  0  0  0  0  0  0  0
    0.2188   -5.4482   33.7453 C   0  0  0  0  0  0  0  0  0  0  0  0
   -0.1250   -6.1996   32.5995 N   0  0  0  0  0  0  0  0  0  0  0  0
    0.8913   -3.8668   33.6896 S   0  0  0  0  0  0  0  0  0  0  0  0
   -0.2315   -3.1994   32.5528 C   0  0  0  0  0  0  0  0  0  0  0  0
   -0.0693   -3.0693   31.1923 C   0  0  0  0  0  0  0  0  0  0  0  0
   -1.1180   -2.1583   30.8277 C   0  0  0  0  0  0  0  0  0  0  0  0
   -1.2184   -1.2502   29.6914 C   0  0  0  0  0  0  0  0  0  0  0  0
   -0.4782   -0.0607   29.6895 C   0  0  0  0  0  0  0  0  0  0  0  0
   -0.6567    0.8742   28.6705 C   0  0  0  0  0  0  0  0  0  0  0  0
   -1.5838    0.5937   27.6846 C   0  0  0  0  0  0  0  0  0  0  0  0
   -2.3101   -0.5401   27.6536 N   0  0  0  0  0  0  0  0  0  0  0  0
   -2.1106   -1.4376   28.6519 C   0  0  0  0  0  0  0  0  0  0  0  0
   -2.0242   -2.0584   31.8240 N   0  0  0  0  0  0  0  0  0  0  0  0
   -1.4138   -2.6211   32.8643 N   0  0  0  0  0  0  0  0  0  0  0  0
   -1.9734   -2.4795   34.1140 O   0  0  0  0  0  0  0  0  0  0  0  0
    3.1242   -1.8789   29.7768 H   0  0  0  0  0  0  0  0  0  0  0  0
    2.5967   -1.7190   28.0058 H   0  0  0  0  0  0  0  0  0  0  0  0
    0.7652   -3.2608   28.3480 H   0  0  0  0  0  0  0  0  0  0  0  0
    1.9800   -3.3934   31.1380 H   0  0  0  0  0  0  0  0  0  0  0  0
    1.1449   -5.5628   29.4529 H   0  0  0  0  0  0  0  0  0  0  0  0
    2.1292   -5.5404   30.8738 H   0  0  0  0  0  0  0  0  0  0  0  0
   -1.8550   -8.7074   34.0890 H   0  0  0  0  0  0  0  0  0  0  0  0
   -1.0382   -7.5460   36.0917 H   0  0  0  0  0  0  0  0  0  0  0  0
    0.1314   -5.3929   35.8870 H   0  0  0  0  0  0  0  0  0  0  0  0
    0.2220    0.1523   30.4928 H   0  0  0  0  0  0  0  0  0  0  0  0
   -0.1013    1.8048   28.6571 H   0  0  0  0  0  0  0  0  0  0  0  0
   -1.7819    1.2914   26.8771 H   0  0  0  0  0  0  0  0  0  0  0  0
   -2.7364   -2.3192   28.5967 H   0  0  0  0  0  0  0  0  0  0  0  0
   -2.5045   -3.3005   34.1322 H   0  0  0  0  0  0  0  0  0  0  0  0
  1  2  2  0
  2  3  1  0
  3  4  1  0
  4  5  1  0
  5  6  2  0
  6  7  1  0
  7  8  2  0
  8  9  1  0
  9 10  2  0
 10 11  1  0
 11 12  2  0
 12 13  1  0
 12 14  1  0
 14 15  1  0
 15 16  2  0
 16 17  1  0
 17 18  1  0
 18 19  2  0
 19 20  1  0
 20 21  2  0
 21 22  1  0
 22 23  2  0
 17 24  2  0
 24 25  1  0
 25 26  1  0
 16  3  1  0
 23 18  1  0
 13  5  1  0
 25 15  1  0
 13  8  1  0
  1 27  1  0
  1 28  1  0
  2 29  1  0
  3 30  1  0
  4 31  1  0
  4 32  1  0
  9 33  1  0
 10 34  1  0
 11 35  1  0
 19 36  1  0
 20 37  1  0
 21 38  1  0
 23 39  1  0
 26 40  1  0
M  END
>  <Energy>  (1164) 
86.593614800998381

>  <compound_id>  (1164) 
4544

>  <target_id>  (1164) 
1

>  <reference_id>  (1164) 
162

>  <inspiration_ids>  (1164) 
[162, 153]

>  <energy_score>  (1164) 
-47.406180880303964

>  <distance_score>  (1164) 
1.013856074439476

>  <path>  (1164) 
/opt/xchem-fragalysis-2/maxwin/BulkDock/SCRATCH/505735/C4544-P162/C4544-P162.minimised.mol

>  <scratch_subdir>  (1164) 
/opt/xchem-fragalysis-2/maxwin/BulkDock/SCRATCH/505735/C4544-P162

>  <fragmenstein_runtime>  (1164) 
2.2300963401794434

>  <fragmenstein_outcome>  (1164) 
too moved

>  <fragmenstein_mode>  (1164) 
expansion

>  <fragmenstein_error>  (1164) 


$$$$
C4544-P153
     RDKit          3D

 40 44  0  0  0  0  0  0  0  0999 V2000
    2.7072   -2.1771   29.3016 C   0  0  0  0  0  0  0  0  0  0  0  0
    1.6293   -2.9751   29.2693 C   0  0  0  0  0  0  0  0  0  0  0  0
    1.0963   -3.7235   30.4737 C   0  0  0  0  0  0  0  0  0  0  0  0
    0.6671   -5.1717   30.1640 C   0  0  0  0  0  0  0  0  0  0  0  0
   -0.0953   -6.0928   31.1115 C   0  0  0  0  0  0  0  0  0  0  0  0
   -0.7534   -7.1151   30.5705 N   0  0  0  0  0  0  0  0  0  0  0  0
   -1.3254   -7.8704   31.5373 N   0  0  0  0  0  0  0  0  0  0  0  0
   -1.0103   -7.3346   32.6872 C   0  0  0  0  0  0  0  0  0  0  0  0
   -1.3434   -7.7550   33.9972 C   0  0  0  0  0  0  0  0  0  0  0  0
   -0.8742   -7.0992   35.0636 C   0  0  0  0  0  0  0  0  0  0  0  0
   -0.1199   -5.8879   34.8862 C   0  0  0  0  0  0  0  0  0  0  0  0
    0.1546   -5.4197   33.6484 C   0  0  0  0  0  0  0  0  0  0  0  0
   -0.2417   -6.1715   32.5105 N   0  0  0  0  0  0  0  0  0  0  0  0
    0.9064   -3.8781   33.6218 S   0  0  0  0  0  0  0  0  0  0  0  0
   -0.1721   -3.1149   32.5167 C   0  0  0  0  0  0  0  0  0  0  0  0
    0.0071   -2.9782   31.1640 C   0  0  0  0  0  0  0  0  0  0  0  0
   -0.9279   -1.9519   30.8135 C   0  0  0  0  0  0  0  0  0  0  0  0
   -0.9114   -1.0361   29.6805 C   0  0  0  0  0  0  0  0  0  0  0  0
   -0.3766    0.2465   29.8450 C   0  0  0  0  0  0  0  0  0  0  0  0
   -0.3860    1.1507   28.7843 C   0  0  0  0  0  0  0  0  0  0  0  0
   -0.9757    0.7622   27.5998 C   0  0  0  0  0  0  0  0  0  0  0  0
   -1.4855   -0.4662   27.4053 N   0  0  0  0  0  0  0  0  0  0  0  0
   -1.4151   -1.3476   28.4332 C   0  0  0  0  0  0  0  0  0  0  0  0
   -1.8152   -1.7575   31.8147 N   0  0  0  0  0  0  0  0  0  0  0  0
   -1.2968   -2.4374   32.8360 N   0  0  0  0  0  0  0  0  0  0  0  0
   -1.8700   -2.3069   34.0801 O   0  0  0  0  0  0  0  0  0  0  0  0
    3.2836   -2.0169   30.2074 H   0  0  0  0  0  0  0  0  0  0  0  0
    3.0225   -1.6439   28.4081 H   0  0  0  0  0  0  0  0  0  0  0  0
    1.0800   -3.0709   28.3343 H   0  0  0  0  0  0  0  0  0  0  0  0
    1.9568   -3.8119   31.1506 H   0  0  0  0  0  0  0  0  0  0  0  0
    1.5530   -5.7283   29.8286 H   0  0  0  0  0  0  0  0  0  0  0  0
    0.0133   -5.0974   29.2860 H   0  0  0  0  0  0  0  0  0  0  0  0
   -1.9776   -8.6216   34.1071 H   0  0  0  0  0  0  0  0  0  0  0  0
   -1.0945   -7.4427   36.0706 H   0  0  0  0  0  0  0  0  0  0  0  0
    0.1455   -5.3484   35.7936 H   0  0  0  0  0  0  0  0  0  0  0  0
    0.0502    0.5444   30.7990 H   0  0  0  0  0  0  0  0  0  0  0  0
    0.0413    2.1416   28.8814 H   0  0  0  0  0  0  0  0  0  0  0  0
   -1.0528    1.4399   26.7557 H   0  0  0  0  0  0  0  0  0  0  0  0
   -1.8194   -2.3260   28.2140 H   0  0  0  0  0  0  0  0  0  0  0  0
   -2.6327   -2.9055   33.9619 H   0  0  0  0  0  0  0  0  0  0  0  0
  1  2  2  0
  2  3  1  0
  3  4  1  0
  4  5  1  0
  5  6  2  0
  6  7  1  0
  7  8  2  0
  8  9  1  0
  9 10  2  0
 10 11  1  0
 11 12  2  0
 12 13  1  0
 12 14  1  0
 14 15  1  0
 15 16  2  0
 16 17  1  0
 17 18  1  0
 18 19  2  0
 19 20  1  0
 20 21  2  0
 21 22  1  0
 22 23  2  0
 17 24  2  0
 24 25  1  0
 25 26  1  0
 16  3  1  0
 23 18  1  0
 13  5  1  0
 25 15  1  0
 13  8  1  0
  1 27  1  0
  1 28  1  0
  2 29  1  0
  3 30  1  0
  4 31  1  0
  4 32  1  0
  9 33  1  0
 10 34  1  0
 11 35  1  0
 19 36  1  0
 20 37  1  0
 21 38  1  0
 23 39  1  0
 26 40  1  0
M  END
>  <Energy>  (1165) 
89.147724830004364

>  <compound_id>  (1165) 
4544

>  <target_id>  (1165) 
1

>  <reference_id>  (1165) 
153

>  <inspiration_ids>  (1165) 
[162, 153]

>  <energy_score>  (1165) 
-44.85207085129804

>  <distance_score>  (1165) 
1.0140635449420972

>  <path>  (1165) 
/opt/xchem-fragalysis-2/maxwin/BulkDock/SCRATCH/505735/C4544-P153/C4544-P153.minimised.mol

>  <scratch_subdir>  (1165) 
/opt/xchem-fragalysis-2/maxwin/BulkDock/SCRATCH/505735/C4544-P153

>  <fragmenstein_runtime>  (1165) 
2.0926692485809326

>  <fragmenstein_outcome>  (1165) 
too moved

>  <fragmenstein_mode>  (1165) 
expansion

>  <fragmenstein_error>  (1165) 


$$$$
C1637-P162
     RDKit          3D

 64 69  0  0  0  0  0  0  0  0999 V2000
    1.9012    0.1561   30.9441 C   0  0  0  0  0  0  0  0  0  0  0  0
    2.4683   -1.0452   30.8245 C   0  0  0  0  0  0  0  0  0  0  0  0
    2.0403   -2.2703   31.5560 C   0  0  0  0  0  0  0  0  0  0  0  0
    0.7082   -2.8313   31.3662 N   0  0  0  0  0  0  0  0  0  0  0  0
    0.2068   -3.8274   32.1589 C   0  0  0  0  0  0  0  0  0  0  0  0
    1.2671   -4.7435   33.1698 S   0  0  0  0  0  0  0  0  0  0  0  0
    0.1858   -5.9578   33.7113 C   0  0  0  0  0  0  0  0  0  0  0  0
   -0.0190   -6.0902   35.0358 C   0  0  0  0  0  0  0  0  0  0  0  0
   -0.8945   -7.1335   35.5186 C   0  0  0  0  0  0  0  0  0  0  0  0
   -1.5235   -7.9615   34.6682 C   0  0  0  0  0  0  0  0  0  0  0  0
   -1.2912   -7.8605   33.2697 C   0  0  0  0  0  0  0  0  0  0  0  0
   -1.7181   -8.5554   32.2351 N   0  0  0  0  0  0  0  0  0  0  0  0
   -1.1482   -8.0351   31.1010 N   0  0  0  0  0  0  0  0  0  0  0  0
   -0.3859   -7.0335   31.4752 C   0  0  0  0  0  0  0  0  0  0  0  0
   -0.4398   -6.8593   32.8362 N   0  0  0  0  0  0  0  0  0  0  0  0
   -1.0561   -4.0340   31.8773 N   0  0  0  0  0  0  0  0  0  0  0  0
   -1.3461   -3.2761   30.7711 N   0  0  0  0  0  0  0  0  0  0  0  0
   -0.2365   -2.6681   30.3835 C   0  0  0  0  0  0  0  0  0  0  0  0
   -0.0516   -1.8773   29.1821 C   0  0  0  0  0  0  0  0  0  0  0  0
   -0.9461   -0.7898   29.0583 C   0  0  0  0  0  0  0  0  0  0  0  0
   -0.6273    0.2744   28.2476 C   0  0  0  0  0  0  0  0  0  0  0  0
    0.5857    0.1970   27.6120 C   0  0  0  0  0  0  0  0  0  0  0  0
    1.4197   -0.8900   27.6300 N   0  0  0  0  0  0  0  0  0  0  0  0
    1.0864   -1.9934   28.3358 C   0  0  0  0  0  0  0  0  0  0  0  0
    2.1196   -3.1818   28.4287 C   0  0  0  0  0  0  0  0  0  0  0  0
    1.5448   -4.5514   28.7981 C   0  0  0  0  0  0  0  0  0  0  0  0
    3.3753   -3.4264   27.0977 S   0  0  0  0  0  0  0  0  0  0  0  0
    3.9380   -2.1801   26.6373 O   0  0  0  0  0  0  0  0  0  0  0  0
    2.9177   -4.4689   26.1984 O   0  0  0  0  0  0  0  0  0  0  0  0
    4.7039   -4.1761   27.8944 N   0  0  0  0  0  0  0  0  0  0  0  0
    5.4911   -5.1760   27.0717 C   0  0  0  0  0  0  0  0  0  0  0  0
    6.3693   -6.0627   27.9453 C   0  0  0  0  0  0  0  0  0  0  0  0
    6.6730   -7.3832   27.5247 C   0  0  0  0  0  0  0  0  0  0  0  0
    7.4724   -8.2306   28.3033 C   0  0  0  0  0  0  0  0  0  0  0  0
    7.9702   -7.7331   29.4855 C   0  0  0  0  0  0  0  0  0  0  0  0
    7.7044   -6.4499   29.8954 C   0  0  0  0  0  0  0  0  0  0  0  0
    6.9213   -5.5926   29.1497 C   0  0  0  0  0  0  0  0  0  0  0  0
    8.2853   -6.1571   31.0906 O   0  0  0  0  0  0  0  0  0  0  0  0
    8.9754   -7.3965   31.3655 C   0  0  0  0  0  0  0  0  0  0  0  0
    8.7554   -8.4082   30.3642 O   0  0  0  0  0  0  0  0  0  0  0  0
    1.0288    0.3291   31.5667 H   0  0  0  0  0  0  0  0  0  0  0  0
    2.2961    1.0103   30.3987 H   0  0  0  0  0  0  0  0  0  0  0  0
    3.3676   -1.1019   30.2127 H   0  0  0  0  0  0  0  0  0  0  0  0
    2.7609   -3.0713   31.3536 H   0  0  0  0  0  0  0  0  0  0  0  0
    2.1263   -2.0405   32.6272 H   0  0  0  0  0  0  0  0  0  0  0  0
    0.4387   -5.4411   35.7767 H   0  0  0  0  0  0  0  0  0  0  0  0
   -1.0306   -7.2287   36.5912 H   0  0  0  0  0  0  0  0  0  0  0  0
   -2.1879   -8.7333   35.0360 H   0  0  0  0  0  0  0  0  0  0  0  0
    0.1997   -6.4152   30.8152 H   0  0  0  0  0  0  0  0  0  0  0  0
   -1.8464   -0.7452   29.6677 H   0  0  0  0  0  0  0  0  0  0  0  0
   -1.2617    1.1473   28.1627 H   0  0  0  0  0  0  0  0  0  0  0  0
    0.9583    1.0440   27.0432 H   0  0  0  0  0  0  0  0  0  0  0  0
    2.8064   -2.8997   29.2217 H   0  0  0  0  0  0  0  0  0  0  0  0
    2.0338   -5.3868   28.2900 H   0  0  0  0  0  0  0  0  0  0  0  0
    0.4752   -4.5998   28.5973 H   0  0  0  0  0  0  0  0  0  0  0  0
    1.6945   -4.7573   29.8599 H   0  0  0  0  0  0  0  0  0  0  0  0
    5.3391   -3.4096   28.1382 H   0  0  0  0  0  0  0  0  0  0  0  0
    4.8013   -5.8327   26.5335 H   0  0  0  0  0  0  0  0  0  0  0  0
    6.1204   -4.6357   26.3566 H   0  0  0  0  0  0  0  0  0  0  0  0
    6.2821   -7.7543   26.5760 H   0  0  0  0  0  0  0  0  0  0  0  0
    7.6978   -9.2420   27.9831 H   0  0  0  0  0  0  0  0  0  0  0  0
    6.7473   -4.5854   29.5082 H   0  0  0  0  0  0  0  0  0  0  0  0
   10.0504   -7.1921   31.4307 H   0  0  0  0  0  0  0  0  0  0  0  0
    8.6307   -7.7797   32.3327 H   0  0  0  0  0  0  0  0  0  0  0  0
  1  2  2  0
  2  3  1  0
  3  4  1  0
  4  5  1  0
  5  6  1  0
  6  7  1  0
  7  8  2  0
  8  9  1  0
  9 10  2  0
 10 11  1  0
 11 12  2  0
 12 13  1  0
 13 14  2  0
 14 15  1  0
  5 16  2  0
 16 17  1  0
 17 18  2  0
 18 19  1  0
 19 20  2  0
 20 21  1  0
 21 22  2  0
 22 23  1  0
 23 24  2  0
 24 25  1  0
 25 26  1  0
 25 27  1  0
 27 28  2  0
 27 29  2  0
 27 30  1  0
 30 31  1  0
 31 32  1  0
 32 33  2  0
 33 34  1  0
 34 35  2  0
 35 36  1  0
 36 37  2  0
 36 38  1  0
 38 39  1  0
 39 40  1  0
 18  4  1  0
 24 19  1  0
 37 32  1  0
 15  7  1  0
 40 35  1  0
 15 11  1  0
  1 41  1  0
  1 42  1  0
  2 43  1  0
  3 44  1  0
  3 45  1  0
  8 46  1  0
  9 47  1  0
 10 48  1  0
 14 49  1  0
 20 50  1  0
 21 51  1  0
 22 52  1  0
 25 53  1  0
 26 54  1  0
 26 55  1  0
 26 56  1  0
 30 57  1  0
 31 58  1  0
 31 59  1  0
 33 60  1  0
 34 61  1  0
 37 62  1  0
 39 63  1  0
 39 64  1  0
M  END
>  <Energy>  (1166) 
71.33151600461261

>  <compound_id>  (1166) 
1637

>  <target_id>  (1166) 
1

>  <reference_id>  (1166) 
162

>  <inspiration_ids>  (1166) 
[162, 154]

>  <energy_score>  (1166) 
-56.85906546388304

>  <distance_score>  (1166) 
1.8740315415887205

>  <path>  (1166) 
/opt/xchem-fragalysis-2/maxwin/BulkDock/SCRATCH/505735/C1637-P162/C1637-P162.minimised.mol

>  <scratch_subdir>  (1166) 
/opt/xchem-fragalysis-2/maxwin/BulkDock/SCRATCH/505735/C1637-P162

>  <fragmenstein_runtime>  (1166) 
7.895088195800781

>  <fragmenstein_outcome>  (1166) 
too moved

>  <fragmenstein_mode>  (1166) 
expansion

>  <fragmenstein_error>  (1166) 


$$$$
C1637-P154
     RDKit          3D

 64 69  0  0  0  0  0  0  0  0999 V2000
    2.1286   -0.3464   31.2402 C   0  0  0  0  0  0  0  0  0  0  0  0
    2.7478   -1.3069   30.5495 C   0  0  0  0  0  0  0  0  0  0  0  0
    2.4289   -2.7608   30.5798 C   0  0  0  0  0  0  0  0  0  0  0  0
    1.0267   -3.1111   30.7134 N   0  0  0  0  0  0  0  0  0  0  0  0
    0.4907   -3.8985   31.6858 C   0  0  0  0  0  0  0  0  0  0  0  0
    1.5149   -4.6939   32.8260 S   0  0  0  0  0  0  0  0  0  0  0  0
    0.4279   -5.8260   33.5030 C   0  0  0  0  0  0  0  0  0  0  0  0
    0.2994   -5.8733   34.8440 C   0  0  0  0  0  0  0  0  0  0  0  0
   -0.6018   -6.8329   35.4406 C   0  0  0  0  0  0  0  0  0  0  0  0
   -1.3170   -7.6705   34.6728 C   0  0  0  0  0  0  0  0  0  0  0  0
   -1.1520   -7.6709   33.2593 C   0  0  0  0  0  0  0  0  0  0  0  0
   -1.6779   -8.3944   32.2920 N   0  0  0  0  0  0  0  0  0  0  0  0
   -1.1514   -7.9752   31.0983 N   0  0  0  0  0  0  0  0  0  0  0  0
   -0.3067   -7.0083   31.3698 C   0  0  0  0  0  0  0  0  0  0  0  0
   -0.2801   -6.7466   32.7192 N   0  0  0  0  0  0  0  0  0  0  0  0
   -0.8118   -3.9697   31.5412 N   0  0  0  0  0  0  0  0  0  0  0  0
   -1.1437   -3.2137   30.4376 N   0  0  0  0  0  0  0  0  0  0  0  0
   -0.0299   -2.7205   29.9163 C   0  0  0  0  0  0  0  0  0  0  0  0
    0.0889   -1.6807   28.8985 C   0  0  0  0  0  0  0  0  0  0  0  0
   -0.6062   -0.4857   29.2063 C   0  0  0  0  0  0  0  0  0  0  0  0
   -0.2746    0.7003   28.5799 C   0  0  0  0  0  0  0  0  0  0  0  0
    0.7285    0.6379   27.6429 C   0  0  0  0  0  0  0  0  0  0  0  0
    1.3480   -0.5123   27.2538 N   0  0  0  0  0  0  0  0  0  0  0  0
    1.0398   -1.6884   27.8470 C   0  0  0  0  0  0  0  0  0  0  0  0
    1.7337   -2.9704   27.3258 C   0  0  0  0  0  0  0  0  0  0  0  0
    1.1351   -3.5539   26.0776 C   0  0  0  0  0  0  0  0  0  0  0  0
    3.5349   -2.7640   26.9345 S   0  0  0  0  0  0  0  0  0  0  0  0
    3.7320   -2.3925   25.5539 O   0  0  0  0  0  0  0  0  0  0  0  0
    4.2379   -2.1056   28.0153 O   0  0  0  0  0  0  0  0  0  0  0  0
    4.1035   -4.4170   27.1006 N   0  0  0  0  0  0  0  0  0  0  0  0
    5.4668   -4.7321   26.5404 C   0  0  0  0  0  0  0  0  0  0  0  0
    6.2400   -5.6560   27.4826 C   0  0  0  0  0  0  0  0  0  0  0  0
    6.5070   -7.0078   27.1545 C   0  0  0  0  0  0  0  0  0  0  0  0
    7.2228   -7.8426   28.0303 C   0  0  0  0  0  0  0  0  0  0  0  0
    7.6579   -7.3064   29.2219 C   0  0  0  0  0  0  0  0  0  0  0  0
    7.3968   -5.9996   29.5562 C   0  0  0  0  0  0  0  0  0  0  0  0
    6.6997   -5.1541   28.7153 C   0  0  0  0  0  0  0  0  0  0  0  0
    7.8980   -5.6671   30.7763 O   0  0  0  0  0  0  0  0  0  0  0  0
    8.5646   -6.8949   31.1374 C   0  0  0  0  0  0  0  0  0  0  0  0
    8.3708   -7.9561   30.1800 O   0  0  0  0  0  0  0  0  0  0  0  0
    2.4587    0.6862   31.1550 H   0  0  0  0  0  0  0  0  0  0  0  0
    1.2922   -0.5415   31.9036 H   0  0  0  0  0  0  0  0  0  0  0  0
    3.6002   -1.0001   29.9465 H   0  0  0  0  0  0  0  0  0  0  0  0
    2.8101   -3.2832   29.7082 H   0  0  0  0  0  0  0  0  0  0  0  0
    3.0130   -3.1753   31.4045 H   0  0  0  0  0  0  0  0  0  0  0  0
    0.8244   -5.1986   35.5144 H   0  0  0  0  0  0  0  0  0  0  0  0
   -0.7209   -6.8226   36.5202 H   0  0  0  0  0  0  0  0  0  0  0  0
   -2.0324   -8.3475   35.1184 H   0  0  0  0  0  0  0  0  0  0  0  0
    0.2848   -6.4764   30.6416 H   0  0  0  0  0  0  0  0  0  0  0  0
   -1.3447   -0.4735   30.0059 H   0  0  0  0  0  0  0  0  0  0  0  0
   -0.7556    1.6381   28.8282 H   0  0  0  0  0  0  0  0  0  0  0  0
    1.0721    1.5331   27.1302 H   0  0  0  0  0  0  0  0  0  0  0  0
    1.6946   -3.7406   28.0974 H   0  0  0  0  0  0  0  0  0  0  0  0
    1.2887   -2.8988   25.2225 H   0  0  0  0  0  0  0  0  0  0  0  0
    0.0822   -3.7564   26.2413 H   0  0  0  0  0  0  0  0  0  0  0  0
    1.6345   -4.4884   25.8121 H   0  0  0  0  0  0  0  0  0  0  0  0
    4.1260   -4.6101   28.0997 H   0  0  0  0  0  0  0  0  0  0  0  0
    5.3369   -5.2006   25.5605 H   0  0  0  0  0  0  0  0  0  0  0  0
    6.0485   -3.8143   26.4002 H   0  0  0  0  0  0  0  0  0  0  0  0
    6.1666   -7.4088   26.1981 H   0  0  0  0  0  0  0  0  0  0  0  0
    7.4323   -8.8750   27.7712 H   0  0  0  0  0  0  0  0  0  0  0  0
    6.5348   -4.1173   28.9953 H   0  0  0  0  0  0  0  0  0  0  0  0
    9.6389   -6.6979   31.2328 H   0  0  0  0  0  0  0  0  0  0  0  0
    8.1809   -7.2274   32.1086 H   0  0  0  0  0  0  0  0  0  0  0  0
  1  2  2  0
  2  3  1  0
  3  4  1  0
  4  5  1  0
  5  6  1  0
  6  7  1  0
  7  8  2  0
  8  9  1  0
  9 10  2  0
 10 11  1  0
 11 12  2  0
 12 13  1  0
 13 14  2  0
 14 15  1  0
  5 16  2  0
 16 17  1  0
 17 18  2  0
 18 19  1  0
 19 20  2  0
 20 21  1  0
 21 22  2  0
 22 23  1  0
 23 24  2  0
 24 25  1  0
 25 26  1  0
 25 27  1  0
 27 28  2  0
 27 29  2  0
 27 30  1  0
 30 31  1  0
 31 32  1  0
 32 33  2  0
 33 34  1  0
 34 35  2  0
 35 36  1  0
 36 37  2  0
 36 38  1  0
 38 39  1  0
 39 40  1  0
 18  4  1  0
 24 19  1  0
 37 32  1  0
 15  7  1  0
 40 35  1  0
 15 11  1  0
  1 41  1  0
  1 42  1  0
  2 43  1  0
  3 44  1  0
  3 45  1  0
  8 46  1  0
  9 47  1  0
 10 48  1  0
 14 49  1  0
 20 50  1  0
 21 51  1  0
 22 52  1  0
 25 53  1  0
 26 54  1  0
 26 55  1  0
 26 56  1  0
 30 57  1  0
 31 58  1  0
 31 59  1  0
 33 60  1  0
 34 61  1  0
 37 62  1  0
 39 63  1  0
 39 64  1  0
M  END
>  <Energy>  (1167) 
49.539961576367816

>  <compound_id>  (1167) 
1637

>  <target_id>  (1167) 
1

>  <reference_id>  (1167) 
154

>  <inspiration_ids>  (1167) 
[162, 154]

>  <energy_score>  (1167) 
-78.65061989213041

>  <distance_score>  (1167) 
1.6782921392122885

>  <path>  (1167) 
/opt/xchem-fragalysis-2/maxwin/BulkDock/SCRATCH/505735/C1637-P154/C1637-P154.minimised.mol

>  <scratch_subdir>  (1167) 
/opt/xchem-fragalysis-2/maxwin/BulkDock/SCRATCH/505735/C1637-P154

>  <fragmenstein_runtime>  (1167) 
8.068023204803467

>  <fragmenstein_outcome>  (1167) 
too moved

>  <fragmenstein_mode>  (1167) 
expansion

>  <fragmenstein_error>  (1167) 


$$$$
C4551-P162
     RDKit          3D

 65 64  0  0  0  0  0  0  0  0999 V2000
   -1.3667    0.9420   27.2608 C   0  0  0  0  0  0  0  0  0  0  0  0
   -1.2456    1.0006   28.7701 C   0  0  0  0  0  0  0  0  0  0  0  0
   -0.4214   -0.1144   29.4367 C   0  0  0  0  0  0  0  0  0  0  0  0
    1.0460   -0.1901   28.9592 C   0  0  0  0  0  0  0  0  0  0  0  0
    1.8641    1.0579   29.2867 C   0  0  0  0  0  0  0  0  0  0  0  0
    3.3273    0.9866   28.8329 C   0  0  0  0  0  0  0  0  0  0  0  0
    4.2035   -0.0176   29.5885 C   0  0  0  0  0  0  0  0  0  0  0  0
    4.0627   -1.3888   29.1008 N   0  0  0  0  0  0  0  0  0  0  0  0
   -1.0887   -1.4963   29.2553 C   0  0  0  0  0  0  0  0  0  0  0  0
   -1.4113   -2.2069   30.5729 C   0  0  0  0  0  0  0  0  0  0  0  0
   -0.2730   -2.3729   31.4762 N   0  0  0  0  0  0  0  0  0  0  0  0
   -0.6620   -3.1769   32.6348 C   0  0  0  0  0  0  0  0  0  0  0  0
    0.7878   -3.6464   33.6343 S   0  0  0  0  0  0  0  0  0  0  0  0
    0.0653   -5.0400   34.5698 C   0  0  0  0  0  0  0  0  0  0  0  0
   -0.3253   -6.0762   33.6600 N   0  0  0  0  0  0  0  0  0  0  0  0
   -0.8621   -7.2775   34.2463 C   0  0  0  0  0  0  0  0  0  0  0  0
   -1.4520   -8.0808   33.1649 N   0  0  0  0  0  0  0  0  0  0  0  0
   -0.5420   -8.2004   32.0277 N   0  0  0  0  0  0  0  0  0  0  0  0
   -0.8732   -7.1800   31.0493 C   0  0  0  0  0  0  0  0  0  0  0  0
    0.2899   -6.6780   30.2078 C   0  0  0  0  0  0  0  0  0  0  0  0
    1.2756   -5.7265   30.8435 C   0  0  0  0  0  0  0  0  0  0  0  0
    2.1236   -4.9602   29.8175 C   0  0  0  0  0  0  0  0  0  0  0  0
    2.6166   -3.7056   30.3872 N   0  0  0  0  0  0  0  0  0  0  0  0
    3.5812   -3.9470   31.4376 N   0  0  0  0  0  0  0  0  0  0  0  0
   -1.7488   -0.0206   26.9128 H   0  0  0  0  0  0  0  0  0  0  0  0
   -2.0521    1.7198   26.9083 H   0  0  0  0  0  0  0  0  0  0  0  0
   -0.3951    1.1284   26.7988 H   0  0  0  0  0  0  0  0  0  0  0  0
   -0.8185    1.9721   29.0385 H   0  0  0  0  0  0  0  0  0  0  0  0
   -2.2564    0.9746   29.1927 H   0  0  0  0  0  0  0  0  0  0  0  0
   -0.4039    0.1316   30.5071 H   0  0  0  0  0  0  0  0  0  0  0  0
    1.5083   -1.0496   29.4534 H   0  0  0  0  0  0  0  0  0  0  0  0
    1.0872   -0.3877   27.8819 H   0  0  0  0  0  0  0  0  0  0  0  0
    1.4133    1.9272   28.7949 H   0  0  0  0  0  0  0  0  0  0  0  0
    1.8273    1.2519   30.3655 H   0  0  0  0  0  0  0  0  0  0  0  0
    3.3761    0.8031   27.7521 H   0  0  0  0  0  0  0  0  0  0  0  0
    3.7622    1.9826   28.9893 H   0  0  0  0  0  0  0  0  0  0  0  0
    3.9862    0.0134   30.6614 H   0  0  0  0  0  0  0  0  0  0  0  0
    5.2522    0.2752   29.4619 H   0  0  0  0  0  0  0  0  0  0  0  0
    4.2402   -1.3963   28.0957 H   0  0  0  0  0  0  0  0  0  0  0  0
    4.7989   -1.9580   29.5214 H   0  0  0  0  0  0  0  0  0  0  0  0
   -2.0347   -1.4029   28.7080 H   0  0  0  0  0  0  0  0  0  0  0  0
   -0.4560   -2.1548   28.6461 H   0  0  0  0  0  0  0  0  0  0  0  0
   -2.2019   -1.6461   31.0868 H   0  0  0  0  0  0  0  0  0  0  0  0
   -1.8203   -3.1888   30.3168 H   0  0  0  0  0  0  0  0  0  0  0  0
    0.5143   -2.8256   31.0049 H   0  0  0  0  0  0  0  0  0  0  0  0
   -1.1825   -4.0764   32.3025 H   0  0  0  0  0  0  0  0  0  0  0  0
   -1.3412   -2.6044   33.2748 H   0  0  0  0  0  0  0  0  0  0  0  0
    0.8311   -5.3990   35.2650 H   0  0  0  0  0  0  0  0  0  0  0  0
   -0.7752   -4.6652   35.1603 H   0  0  0  0  0  0  0  0  0  0  0  0
    0.4714   -6.3715   33.1113 H   0  0  0  0  0  0  0  0  0  0  0  0
   -1.6429   -7.0560   34.9794 H   0  0  0  0  0  0  0  0  0  0  0  0
   -0.0758   -7.8444   34.7582 H   0  0  0  0  0  0  0  0  0  0  0  0
   -1.6658   -8.9963   33.5864 H   0  0  0  0  0  0  0  0  0  0  0  0
   -0.6954   -9.1038   31.5641 H   0  0  0  0  0  0  0  0  0  0  0  0
   -1.3529   -6.3095   31.4968 H   0  0  0  0  0  0  0  0  0  0  0  0
   -1.6038   -7.6278   30.3719 H   0  0  0  0  0  0  0  0  0  0  0  0
    0.8058   -7.5179   29.7423 H   0  0  0  0  0  0  0  0  0  0  0  0
   -0.1912   -6.0701   29.4468 H   0  0  0  0  0  0  0  0  0  0  0  0
    1.9029   -6.2314   31.5811 H   0  0  0  0  0  0  0  0  0  0  0  0
    0.6695   -4.9975   31.3595 H   0  0  0  0  0  0  0  0  0  0  0  0
    1.5011   -4.6900   28.9569 H   0  0  0  0  0  0  0  0  0  0  0  0
    2.9387   -5.5800   29.4288 H   0  0  0  0  0  0  0  0  0  0  0  0
    2.9869   -3.0820   29.6508 H   0  0  0  0  0  0  0  0  0  0  0  0
    3.0713   -4.2139   32.2915 H   0  0  0  0  0  0  0  0  0  0  0  0
    3.9962   -3.0495   31.7151 H   0  0  0  0  0  0  0  0  0  0  0  0
  1  2  1  0
  2  3  1  0
  3  4  1  0
  4  5  1  0
  5  6  1  0
  6  7  1  0
  7  8  1  0
  3  9  1  0
  9 10  1  0
 10 11  1  0
 11 12  1  0
 12 13  1  0
 13 14  1  0
 14 15  1  0
 15 16  1  0
 16 17  1  0
 17 18  1  0
 18 19  1  0
 19 20  1  0
 20 21  1  0
 21 22  1  0
 22 23  1  0
 23 24  1  0
  1 25  1  0
  1 26  1  0
  1 27  1  0
  2 28  1  0
  2 29  1  0
  3 30  1  0
  4 31  1  0
  4 32  1  0
  5 33  1  0
  5 34  1  0
  6 35  1  0
  6 36  1  0
  7 37  1  0
  7 38  1  0
  8 39  1  0
  8 40  1  0
  9 41  1  0
  9 42  1  0
 10 43  1  0
 10 44  1  0
 11 45  1  0
 12 46  1  0
 12 47  1  0
 14 48  1  0
 14 49  1  0
 15 50  1  0
 16 51  1  0
 16 52  1  0
 17 53  1  0
 18 54  1  0
 19 55  1  0
 19 56  1  0
 20 57  1  0
 20 58  1  0
 21 59  1  0
 21 60  1  0
 22 61  1  0
 22 62  1  0
 23 63  1  0
 24 64  1  0
 24 65  1  0
M  END
>  <Energy>  (1168) 
18.431734145245965

>  <compound_id>  (1168) 
4551

>  <target_id>  (1168) 
1

>  <reference_id>  (1168) 
162

>  <inspiration_ids>  (1168) 
[162, 156]

>  <energy_score>  (1168) 
-68.6719615674412

>  <distance_score>  (1168) 
1.3791081537479244

>  <path>  (1168) 
/opt/xchem-fragalysis-2/maxwin/BulkDock/SCRATCH/505735/C4551-P162/C4551-P162.minimised.mol

>  <scratch_subdir>  (1168) 
/opt/xchem-fragalysis-2/maxwin/BulkDock/SCRATCH/505735/C4551-P162

>  <fragmenstein_runtime>  (1168) 
9.381916761398315

>  <fragmenstein_outcome>  (1168) 
too moved

>  <fragmenstein_mode>  (1168) 
expansion

>  <fragmenstein_error>  (1168) 


$$$$
C4551-P156
     RDKit          3D

 65 64  0  0  0  0  0  0  0  0999 V2000
   -1.1398    1.1030   27.2599 C   0  0  0  0  0  0  0  0  0  0  0  0
   -1.0867    1.2169   28.7705 C   0  0  0  0  0  0  0  0  0  0  0  0
   -0.4007    0.0578   29.5200 C   0  0  0  0  0  0  0  0  0  0  0  0
    1.1061   -0.0769   29.2027 C   0  0  0  0  0  0  0  0  0  0  0  0
    1.9432    1.1189   29.6620 C   0  0  0  0  0  0  0  0  0  0  0  0
    3.4422    1.0001   29.3518 C   0  0  0  0  0  0  0  0  0  0  0  0
    4.1988   -0.0622   30.1548 C   0  0  0  0  0  0  0  0  0  0  0  0
    3.9563   -1.4105   29.6623 N   0  0  0  0  0  0  0  0  0  0  0  0
   -1.1064   -1.2935   29.2553 C   0  0  0  0  0  0  0  0  0  0  0  0
   -1.4937   -2.0573   30.5275 C   0  0  0  0  0  0  0  0  0  0  0  0
   -0.3686   -2.3725   31.4004 N   0  0  0  0  0  0  0  0  0  0  0  0
   -0.7746   -3.2172   32.5126 C   0  0  0  0  0  0  0  0  0  0  0  0
    0.6850   -3.8320   33.3978 S   0  0  0  0  0  0  0  0  0  0  0  0
   -0.0668   -5.2098   34.3231 C   0  0  0  0  0  0  0  0  0  0  0  0
    0.1247   -6.4290   33.5694 N   0  0  0  0  0  0  0  0  0  0  0  0
   -0.9763   -7.3608   33.6680 C   0  0  0  0  0  0  0  0  0  0  0  0
   -1.0373   -8.1286   32.4178 N   0  0  0  0  0  0  0  0  0  0  0  0
   -1.2144   -7.2828   31.2423 N   0  0  0  0  0  0  0  0  0  0  0  0
    0.0754   -7.1443   30.5367 C   0  0  0  0  0  0  0  0  0  0  0  0
    0.3051   -5.7083   30.0316 C   0  0  0  0  0  0  0  0  0  0  0  0
    1.6720   -5.4536   29.3696 C   0  0  0  0  0  0  0  0  0  0  0  0
    2.6173   -4.4724   30.0631 C   0  0  0  0  0  0  0  0  0  0  0  0
    3.0050   -4.8903   31.4069 N   0  0  0  0  0  0  0  0  0  0  0  0
    4.0289   -3.9763   31.8888 N   0  0  0  0  0  0  0  0  0  0  0  0
   -1.6068    0.1736   26.9262 H   0  0  0  0  0  0  0  0  0  0  0  0
   -1.7184    1.9333   26.8415 H   0  0  0  0  0  0  0  0  0  0  0  0
   -0.1322    1.1629   26.8432 H   0  0  0  0  0  0  0  0  0  0  0  0
   -0.6038    2.1655   29.0274 H   0  0  0  0  0  0  0  0  0  0  0  0
   -2.1116    1.2993   29.1399 H   0  0  0  0  0  0  0  0  0  0  0  0
   -0.4920    0.2970   30.5884 H   0  0  0  0  0  0  0  0  0  0  0  0
    1.4690   -0.9735   29.7124 H   0  0  0  0  0  0  0  0  0  0  0  0
    1.2562   -0.2434   28.1296 H   0  0  0  0  0  0  0  0  0  0  0  0
    1.5834    2.0266   29.1651 H   0  0  0  0  0  0  0  0  0  0  0  0
    1.8060    1.2737   30.7390 H   0  0  0  0  0  0  0  0  0  0  0  0
    3.5890    0.8429   28.2757 H   0  0  0  0  0  0  0  0  0  0  0  0
    3.8996    1.9715   29.5811 H   0  0  0  0  0  0  0  0  0  0  0  0
    3.9245   -0.0036   31.2134 H   0  0  0  0  0  0  0  0  0  0  0  0
    5.2735    0.1405   30.0854 H   0  0  0  0  0  0  0  0  0  0  0  0
    4.2549   -1.4764   28.6898 H   0  0  0  0  0  0  0  0  0  0  0  0
    4.5282   -2.0822   30.1789 H   0  0  0  0  0  0  0  0  0  0  0  0
   -2.0308   -1.1376   28.6904 H   0  0  0  0  0  0  0  0  0  0  0  0
   -0.4811   -1.9394   28.6252 H   0  0  0  0  0  0  0  0  0  0  0  0
   -2.2286   -1.4654   31.0860 H   0  0  0  0  0  0  0  0  0  0  0  0
   -1.9851   -2.9842   30.2138 H   0  0  0  0  0  0  0  0  0  0  0  0
    0.3777   -2.8137   30.8730 H   0  0  0  0  0  0  0  0  0  0  0  0
   -1.3532   -4.0743   32.1588 H   0  0  0  0  0  0  0  0  0  0  0  0
   -1.3920   -2.6480   33.2147 H   0  0  0  0  0  0  0  0  0  0  0  0
    0.4464   -5.2961   35.2855 H   0  0  0  0  0  0  0  0  0  0  0  0
   -1.1099   -4.9642   34.5270 H   0  0  0  0  0  0  0  0  0  0  0  0
    0.2059   -6.1708   32.6019 H   0  0  0  0  0  0  0  0  0  0  0  0
   -0.8135   -8.0340   34.5139 H   0  0  0  0  0  0  0  0  0  0  0  0
   -1.9303   -6.8587   33.8246 H   0  0  0  0  0  0  0  0  0  0  0  0
   -1.7966   -8.8131   32.5005 H   0  0  0  0  0  0  0  0  0  0  0  0
   -1.5668   -6.3637   31.5079 H   0  0  0  0  0  0  0  0  0  0  0  0
    0.0939   -7.8684   29.7203 H   0  0  0  0  0  0  0  0  0  0  0  0
    0.9109   -7.3899   31.1897 H   0  0  0  0  0  0  0  0  0  0  0  0
   -0.4822   -5.4518   29.3168 H   0  0  0  0  0  0  0  0  0  0  0  0
    0.1801   -5.0118   30.8492 H   0  0  0  0  0  0  0  0  0  0  0  0
    1.4864   -4.9840   28.3976 H   0  0  0  0  0  0  0  0  0  0  0  0
    2.1918   -6.3924   29.1616 H   0  0  0  0  0  0  0  0  0  0  0  0
    3.5123   -4.3874   29.4326 H   0  0  0  0  0  0  0  0  0  0  0  0
    2.1505   -3.4839   30.0907 H   0  0  0  0  0  0  0  0  0  0  0  0
    2.1837   -4.8609   32.0268 H   0  0  0  0  0  0  0  0  0  0  0  0
    4.3997   -4.2997   32.7872 H   0  0  0  0  0  0  0  0  0  0  0  0
    3.6225   -3.0529   32.0875 H   0  0  0  0  0  0  0  0  0  0  0  0
  1  2  1  0
  2  3  1  0
  3  4  1  0
  4  5  1  0
  5  6  1  0
  6  7  1  0
  7  8  1  0
  3  9  1  0
  9 10  1  0
 10 11  1  0
 11 12  1  0
 12 13  1  0
 13 14  1  0
 14 15  1  0
 15 16  1  0
 16 17  1  0
 17 18  1  0
 18 19  1  0
 19 20  1  0
 20 21  1  0
 21 22  1  0
 22 23  1  0
 23 24  1  0
  1 25  1  0
  1 26  1  0
  1 27  1  0
  2 28  1  0
  2 29  1  0
  3 30  1  0
  4 31  1  0
  4 32  1  0
  5 33  1  0
  5 34  1  0
  6 35  1  0
  6 36  1  0
  7 37  1  0
  7 38  1  0
  8 39  1  0
  8 40  1  0
  9 41  1  0
  9 42  1  0
 10 43  1  0
 10 44  1  0
 11 45  1  0
 12 46  1  0
 12 47  1  0
 14 48  1  0
 14 49  1  0
 15 50  1  0
 16 51  1  0
 16 52  1  0
 17 53  1  0
 18 54  1  0
 19 55  1  0
 19 56  1  0
 20 57  1  0
 20 58  1  0
 21 59  1  0
 21 60  1  0
 22 61  1  0
 22 62  1  0
 23 63  1  0
 24 64  1  0
 24 65  1  0
M  END
>  <Energy>  (1169) 
20.722190647124346

>  <compound_id>  (1169) 
4551

>  <target_id>  (1169) 
1

>  <reference_id>  (1169) 
156

>  <inspiration_ids>  (1169) 
[162, 156]

>  <energy_score>  (1169) 
-66.38150506556184

>  <distance_score>  (1169) 
1.4297849856628855

>  <path>  (1169) 
/opt/xchem-fragalysis-2/maxwin/BulkDock/SCRATCH/505735/C4551-P156/C4551-P156.minimised.mol

>  <scratch_subdir>  (1169) 
/opt/xchem-fragalysis-2/maxwin/BulkDock/SCRATCH/505735/C4551-P156

>  <fragmenstein_runtime>  (1169) 
10.349737882614136

>  <fragmenstein_outcome>  (1169) 
too moved

>  <fragmenstein_mode>  (1169) 
expansion

>  <fragmenstein_error>  (1169) 


$$$$
C4530-P162
     RDKit          3D

 51 55  0  0  0  0  0  0  0  0999 V2000
    3.1517   -1.9423   29.8913 C   0  0  0  0  0  0  0  0  0  0  0  0
    1.9910   -1.8901   29.2271 C   0  0  0  0  0  0  0  0  0  0  0  0
    0.9804   -2.9913   29.1614 C   0  0  0  0  0  0  0  0  0  0  0  0
   -0.0443   -2.8981   30.1840 N   0  0  0  0  0  0  0  0  0  0  0  0
   -0.1661   -3.6461   31.3219 C   0  0  0  0  0  0  0  0  0  0  0  0
    1.1506   -4.5373   32.0093 S   0  0  0  0  0  0  0  0  0  0  0  0
    0.2525   -5.5889   33.0761 C   0  0  0  0  0  0  0  0  0  0  0  0
    0.1894   -5.4162   34.4273 C   0  0  0  0  0  0  0  0  0  0  0  0
    0.8092   -4.2285   35.0674 C   0  0  0  0  0  0  0  0  0  0  0  0
    0.0613   -3.0404   35.1090 C   0  0  0  0  0  0  0  0  0  0  0  0
    0.5925   -1.9091   35.7130 C   0  0  0  0  0  0  0  0  0  0  0  0
   -0.1219   -0.7766   35.7419 F   0  0  0  0  0  0  0  0  0  0  0  0
    1.8530   -1.9356   36.2933 C   0  0  0  0  0  0  0  0  0  0  0  0
    2.5994   -3.1143   36.2702 C   0  0  0  0  0  0  0  0  0  0  0  0
    2.0917   -4.2720   35.6564 C   0  0  0  0  0  0  0  0  0  0  0  0
    2.9155   -5.5319   35.6728 C   0  0  0  0  0  0  0  0  0  0  0  0
   -0.5150   -6.4479   35.2214 C   0  0  0  0  0  0  0  0  0  0  0  0
   -0.5607   -6.2948   36.5949 O   0  0  0  0  0  0  0  0  0  0  0  0
   -1.0903   -7.5206   34.6501 C   0  0  0  0  0  0  0  0  0  0  0  0
   -1.0718   -7.6586   33.2404 C   0  0  0  0  0  0  0  0  0  0  0  0
   -1.5962   -8.5427   32.4180 N   0  0  0  0  0  0  0  0  0  0  0  0
   -1.2333   -8.2132   31.1369 N   0  0  0  0  0  0  0  0  0  0  0  0
   -0.4882   -7.1372   31.2122 C   0  0  0  0  0  0  0  0  0  0  0  0
   -0.3843   -6.7057   32.5116 N   0  0  0  0  0  0  0  0  0  0  0  0
   -1.3848   -3.5271   31.7950 N   0  0  0  0  0  0  0  0  0  0  0  0
   -2.0235   -2.5595   31.0487 N   0  0  0  0  0  0  0  0  0  0  0  0
   -1.1834   -2.1252   30.1248 C   0  0  0  0  0  0  0  0  0  0  0  0
   -1.3533   -0.9761   29.2510 C   0  0  0  0  0  0  0  0  0  0  0  0
   -0.7230    0.2365   29.5502 C   0  0  0  0  0  0  0  0  0  0  0  0
   -0.8567    1.3221   28.6877 C   0  0  0  0  0  0  0  0  0  0  0  0
   -1.6536    1.1753   27.5680 C   0  0  0  0  0  0  0  0  0  0  0  0
   -2.2721    0.0236   27.2486 N   0  0  0  0  0  0  0  0  0  0  0  0
   -2.1071   -1.0286   28.0897 C   0  0  0  0  0  0  0  0  0  0  0  0
    3.4532   -2.8096   30.4694 H   0  0  0  0  0  0  0  0  0  0  0  0
    3.8386   -1.0999   29.8685 H   0  0  0  0  0  0  0  0  0  0  0  0
    1.7651   -0.9947   28.6491 H   0  0  0  0  0  0  0  0  0  0  0  0
    0.4740   -2.9700   28.1930 H   0  0  0  0  0  0  0  0  0  0  0  0
    1.4575   -3.9750   29.2260 H   0  0  0  0  0  0  0  0  0  0  0  0
   -0.9340   -2.9874   34.6703 H   0  0  0  0  0  0  0  0  0  0  0  0
    2.2451   -1.0402   36.7658 H   0  0  0  0  0  0  0  0  0  0  0  0
    3.5818   -3.1236   36.7389 H   0  0  0  0  0  0  0  0  0  0  0  0
    3.9277   -5.3417   36.0458 H   0  0  0  0  0  0  0  0  0  0  0  0
    3.0180   -5.9422   34.6633 H   0  0  0  0  0  0  0  0  0  0  0  0
    2.4539   -6.2786   36.3262 H   0  0  0  0  0  0  0  0  0  0  0  0
   -0.3438   -5.3774   36.8312 H   0  0  0  0  0  0  0  0  0  0  0  0
   -1.5754   -8.2863   35.2474 H   0  0  0  0  0  0  0  0  0  0  0  0
   -0.0312   -6.6357   30.3741 H   0  0  0  0  0  0  0  0  0  0  0  0
   -0.1228    0.3398   30.4510 H   0  0  0  0  0  0  0  0  0  0  0  0
   -0.3734    2.2704   28.8962 H   0  0  0  0  0  0  0  0  0  0  0  0
   -1.8266    2.0021   26.8851 H   0  0  0  0  0  0  0  0  0  0  0  0
   -2.6216   -1.9333   27.7819 H   0  0  0  0  0  0  0  0  0  0  0  0
  1  2  2  0
  2  3  1  0
  3  4  1  0
  4  5  1  0
  5  6  1  0
  6  7  1  0
  7  8  2  0
  8  9  1  0
  9 10  2  0
 10 11  1  0
 11 12  1  0
 11 13  2  0
 13 14  1  0
 14 15  2  0
 15 16  1  0
  8 17  1  0
 17 18  1  0
 17 19  2  0
 19 20  1  0
 20 21  2  0
 21 22  1  0
 22 23  2  0
 23 24  1  0
  5 25  2  0
 25 26  1  0
 26 27  2  0
 27 28  1  0
 28 29  2  0
 29 30  1  0
 30 31  2  0
 31 32  1  0
 32 33  2  0
 27  4  1  0
 33 28  1  0
 24  7  1  0
 15  9  1  0
 24 20  1  0
  1 34  1  0
  1 35  1  0
  2 36  1  0
  3 37  1  0
  3 38  1  0
 10 39  1  0
 13 40  1  0
 14 41  1  0
 16 42  1  0
 16 43  1  0
 16 44  1  0
 18 45  1  0
 19 46  1  0
 23 47  1  0
 29 48  1  0
 30 49  1  0
 31 50  1  0
 33 51  1  0
M  END
>  <Energy>  (1170) 
82.037986455359658

>  <compound_id>  (1170) 
4530

>  <target_id>  (1170) 
1

>  <reference_id>  (1170) 
162

>  <inspiration_ids>  (1170) 
[162, 158]

>  <energy_score>  (1170) 
-62.87051978034259

>  <distance_score>  (1170) 
0.41298994562606794

>  <path>  (1170) 
/opt/xchem-fragalysis-2/maxwin/BulkDock/SCRATCH/505735/C4530-P162/C4530-P162.minimised.mol

>  <scratch_subdir>  (1170) 
/opt/xchem-fragalysis-2/maxwin/BulkDock/SCRATCH/505735/C4530-P162

>  <fragmenstein_runtime>  (1170) 
2.592043399810791

>  <fragmenstein_outcome>  (1170) 
acceptable

>  <fragmenstein_mode>  (1170) 
expansion

>  <fragmenstein_error>  (1170) 


$$$$
C4530-P158
     RDKit          3D

 51 55  0  0  0  0  0  0  0  0999 V2000
    3.1530   -1.8889   29.9708 C   0  0  0  0  0  0  0  0  0  0  0  0
    2.1605   -2.1305   29.1055 C   0  0  0  0  0  0  0  0  0  0  0  0
    1.1904   -3.2687   29.1962 C   0  0  0  0  0  0  0  0  0  0  0  0
    0.1468   -3.0714   30.1853 N   0  0  0  0  0  0  0  0  0  0  0  0
   -0.0317   -3.7152   31.3751 C   0  0  0  0  0  0  0  0  0  0  0  0
    1.2234   -4.6168   32.1507 S   0  0  0  0  0  0  0  0  0  0  0  0
    0.2400   -5.6318   33.1717 C   0  0  0  0  0  0  0  0  0  0  0  0
    0.1929   -5.5112   34.5278 C   0  0  0  0  0  0  0  0  0  0  0  0
    0.8982   -4.4025   35.2202 C   0  0  0  0  0  0  0  0  0  0  0  0
    0.2359   -3.1679   35.3197 C   0  0  0  0  0  0  0  0  0  0  0  0
    0.8554   -2.0995   35.9532 C   0  0  0  0  0  0  0  0  0  0  0  0
    0.2237   -0.9208   36.0346 F   0  0  0  0  0  0  0  0  0  0  0  0
    2.1230   -2.2324   36.5031 C   0  0  0  0  0  0  0  0  0  0  0  0
    2.7859   -3.4573   36.4213 C   0  0  0  0  0  0  0  0  0  0  0  0
    2.1871   -4.5542   35.7780 C   0  0  0  0  0  0  0  0  0  0  0  0
    2.9178   -5.8686   35.7378 C   0  0  0  0  0  0  0  0  0  0  0  0
   -0.5881   -6.5106   35.2831 C   0  0  0  0  0  0  0  0  0  0  0  0
   -0.5222   -6.3922   36.6559 O   0  0  0  0  0  0  0  0  0  0  0  0
   -1.2800   -7.4902   34.6721 C   0  0  0  0  0  0  0  0  0  0  0  0
   -1.2546   -7.5853   33.2584 C   0  0  0  0  0  0  0  0  0  0  0  0
   -1.8018   -8.4285   32.4093 N   0  0  0  0  0  0  0  0  0  0  0  0
   -1.3786   -8.1049   31.1471 N   0  0  0  0  0  0  0  0  0  0  0  0
   -0.5944   -7.0612   31.2546 C   0  0  0  0  0  0  0  0  0  0  0  0
   -0.4826   -6.6708   32.5659 N   0  0  0  0  0  0  0  0  0  0  0  0
   -1.2413   -3.4761   31.8262 N   0  0  0  0  0  0  0  0  0  0  0  0
   -1.7905   -2.4982   31.0239 N   0  0  0  0  0  0  0  0  0  0  0  0
   -0.9106   -2.1968   30.0855 C   0  0  0  0  0  0  0  0  0  0  0  0
   -0.8947   -1.0365   29.2178 C   0  0  0  0  0  0  0  0  0  0  0  0
   -0.3764    0.1683   29.6988 C   0  0  0  0  0  0  0  0  0  0  0  0
   -0.2125    1.2444   28.8339 C   0  0  0  0  0  0  0  0  0  0  0  0
   -0.6386    1.1128   27.5278 C   0  0  0  0  0  0  0  0  0  0  0  0
   -1.1327   -0.0339   27.0341 N   0  0  0  0  0  0  0  0  0  0  0  0
   -1.2357   -1.0926   27.8777 C   0  0  0  0  0  0  0  0  0  0  0  0
    3.3346   -2.5149   30.8387 H   0  0  0  0  0  0  0  0  0  0  0  0
    3.8149   -1.0386   29.8282 H   0  0  0  0  0  0  0  0  0  0  0  0
    2.0367   -1.4628   28.2526 H   0  0  0  0  0  0  0  0  0  0  0  0
    0.6942   -3.4118   28.2294 H   0  0  0  0  0  0  0  0  0  0  0  0
    1.7131   -4.2082   29.4022 H   0  0  0  0  0  0  0  0  0  0  0  0
   -0.7622   -3.0335   34.9075 H   0  0  0  0  0  0  0  0  0  0  0  0
    2.5833   -1.3849   37.0008 H   0  0  0  0  0  0  0  0  0  0  0  0
    3.7719   -3.5529   36.8713 H   0  0  0  0  0  0  0  0  0  0  0  0
    3.9495   -5.7624   36.0899 H   0  0  0  0  0  0  0  0  0  0  0  0
    2.9676   -6.2553   34.7151 H   0  0  0  0  0  0  0  0  0  0  0  0
    2.4193   -6.6005   36.3809 H   0  0  0  0  0  0  0  0  0  0  0  0
   -0.9468   -7.1723   37.0566 H   0  0  0  0  0  0  0  0  0  0  0  0
   -1.8329   -8.2402   35.2255 H   0  0  0  0  0  0  0  0  0  0  0  0
   -0.1033   -6.5660   30.4321 H   0  0  0  0  0  0  0  0  0  0  0  0
   -0.0536    0.2539   30.7339 H   0  0  0  0  0  0  0  0  0  0  0  0
    0.2522    2.1626   29.1704 H   0  0  0  0  0  0  0  0  0  0  0  0
   -0.5732    1.9368   26.8236 H   0  0  0  0  0  0  0  0  0  0  0  0
   -1.6190   -1.9990   27.4178 H   0  0  0  0  0  0  0  0  0  0  0  0
  1  2  2  0
  2  3  1  0
  3  4  1  0
  4  5  1  0
  5  6  1  0
  6  7  1  0
  7  8  2  0
  8  9  1  0
  9 10  2  0
 10 11  1  0
 11 12  1  0
 11 13  2  0
 13 14  1  0
 14 15  2  0
 15 16  1  0
  8 17  1  0
 17 18  1  0
 17 19  2  0
 19 20  1  0
 20 21  2  0
 21 22  1  0
 22 23  2  0
 23 24  1  0
  5 25  2  0
 25 26  1  0
 26 27  2  0
 27 28  1  0
 28 29  2  0
 29 30  1  0
 30 31  2  0
 31 32  1  0
 32 33  2  0
 27  4  1  0
 33 28  1  0
 24  7  1  0
 15  9  1  0
 24 20  1  0
  1 34  1  0
  1 35  1  0
  2 36  1  0
  3 37  1  0
  3 38  1  0
 10 39  1  0
 13 40  1  0
 14 41  1  0
 16 42  1  0
 16 43  1  0
 16 44  1  0
 18 45  1  0
 19 46  1  0
 23 47  1  0
 29 48  1  0
 30 49  1  0
 31 50  1  0
 33 51  1  0
M  END
>  <Energy>  (1171) 
86.551902151429942

>  <compound_id>  (1171) 
4530

>  <target_id>  (1171) 
1

>  <reference_id>  (1171) 
158

>  <inspiration_ids>  (1171) 
[162, 158]

>  <energy_score>  (1171) 
-58.35660408427117

>  <distance_score>  (1171) 
0.6137941874402211

>  <path>  (1171) 
/opt/xchem-fragalysis-2/maxwin/BulkDock/SCRATCH/505735/C4530-P158/C4530-P158.minimised.mol

>  <scratch_subdir>  (1171) 
/opt/xchem-fragalysis-2/maxwin/BulkDock/SCRATCH/505735/C4530-P158

>  <fragmenstein_runtime>  (1171) 
2.595214605331421

>  <fragmenstein_outcome>  (1171) 
acceptable

>  <fragmenstein_mode>  (1171) 
expansion

>  <fragmenstein_error>  (1171) 


$$$$
C897-P162
     RDKit          3D

 39 42  0  0  0  0  0  0  0  0999 V2000
    2.5993   -1.5149   30.2497 C   0  0  0  0  0  0  0  0  0  0  0  0
    2.1499   -2.2828   29.2486 C   0  0  0  0  0  0  0  0  0  0  0  0
    0.9140   -3.1341   29.2055 C   0  0  0  0  0  0  0  0  0  0  0  0
   -0.0501   -2.9439   30.2740 N   0  0  0  0  0  0  0  0  0  0  0  0
   -0.1693   -3.6426   31.4445 C   0  0  0  0  0  0  0  0  0  0  0  0
    1.1489   -4.5038   32.1745 S   0  0  0  0  0  0  0  0  0  0  0  0
    0.2529   -5.6124   33.1659 C   0  0  0  0  0  0  0  0  0  0  0  0
    0.2284   -5.4658   34.5078 C   0  0  0  0  0  0  0  0  0  0  0  0
   -0.4561   -6.4530   35.3315 C   0  0  0  0  0  0  0  0  0  0  0  0
   -1.1026   -7.4972   34.7826 C   0  0  0  0  0  0  0  0  0  0  0  0
   -1.1250   -7.6386   33.3709 C   0  0  0  0  0  0  0  0  0  0  0  0
   -1.6975   -8.5183   32.5797 N   0  0  0  0  0  0  0  0  0  0  0  0
   -1.2898   -8.2693   31.2979 N   0  0  0  0  0  0  0  0  0  0  0  0
   -0.4633   -7.2520   31.3319 C   0  0  0  0  0  0  0  0  0  0  0  0
    0.3382   -6.8633   30.3156 N   0  0  0  0  0  0  0  0  0  0  0  0
   -0.4086   -6.7223   32.6116 N   0  0  0  0  0  0  0  0  0  0  0  0
   -1.3701   -3.4555   31.9415 N   0  0  0  0  0  0  0  0  0  0  0  0
   -1.9947   -2.4991   31.1679 N   0  0  0  0  0  0  0  0  0  0  0  0
   -1.1598   -2.1283   30.2130 C   0  0  0  0  0  0  0  0  0  0  0  0
   -1.3094   -1.0023   29.3049 C   0  0  0  0  0  0  0  0  0  0  0  0
   -0.6311    0.1966   29.5474 C   0  0  0  0  0  0  0  0  0  0  0  0
   -0.7776    1.2704   28.6719 C   0  0  0  0  0  0  0  0  0  0  0  0
   -1.6213    1.1206   27.5875 C   0  0  0  0  0  0  0  0  0  0  0  0
   -2.2805   -0.0211   27.3170 N   0  0  0  0  0  0  0  0  0  0  0  0
   -2.1099   -1.0587   28.1753 C   0  0  0  0  0  0  0  0  0  0  0  0
    3.5138   -0.9385   30.1323 H   0  0  0  0  0  0  0  0  0  0  0  0
    2.0863   -1.4238   31.2019 H   0  0  0  0  0  0  0  0  0  0  0  0
    2.7348   -2.2969   28.3287 H   0  0  0  0  0  0  0  0  0  0  0  0
    0.3872   -2.9447   28.2657 H   0  0  0  0  0  0  0  0  0  0  0  0
    1.1966   -4.1920   29.1874 H   0  0  0  0  0  0  0  0  0  0  0  0
    0.7134   -4.6384   35.0169 H   0  0  0  0  0  0  0  0  0  0  0  0
   -0.4265   -6.3284   36.4105 H   0  0  0  0  0  0  0  0  0  0  0  0
   -1.5893   -8.2542   35.3901 H   0  0  0  0  0  0  0  0  0  0  0  0
    0.5756   -7.6694   29.7421 H   0  0  0  0  0  0  0  0  0  0  0  0
    1.1665   -6.3323   30.5646 H   0  0  0  0  0  0  0  0  0  0  0  0
    0.0059    0.3044   30.4210 H   0  0  0  0  0  0  0  0  0  0  0  0
   -0.2661    2.2110   28.8439 H   0  0  0  0  0  0  0  0  0  0  0  0
   -1.8013    1.9370   26.8942 H   0  0  0  0  0  0  0  0  0  0  0  0
   -2.6638   -1.9544   27.9126 H   0  0  0  0  0  0  0  0  0  0  0  0
  1  2  2  0
  2  3  1  0
  3  4  1  0
  4  5  1  0
  5  6  1  0
  6  7  1  0
  7  8  2  0
  8  9  1  0
  9 10  2  0
 10 11  1  0
 11 12  2  0
 12 13  1  0
 13 14  2  0
 14 15  1  0
 14 16  1  0
  5 17  2  0
 17 18  1  0
 18 19  2  0
 19 20  1  0
 20 21  2  0
 21 22  1  0
 22 23  2  0
 23 24  1  0
 24 25  2  0
 19  4  1  0
 25 20  1  0
 16  7  1  0
 16 11  1  0
  1 26  1  0
  1 27  1  0
  2 28  1  0
  3 29  1  0
  3 30  1  0
  8 31  1  0
  9 32  1  0
 10 33  1  0
 15 34  1  0
 15 35  1  0
 21 36  1  0
 22 37  1  0
 23 38  1  0
 25 39  1  0
M  END
>  <Energy>  (1172) 
78.13969868876319

>  <compound_id>  (1172) 
897

>  <target_id>  (1172) 
1

>  <reference_id>  (1172) 
162

>  <inspiration_ids>  (1172) 
[162, 165]

>  <energy_score>  (1172) 
-53.270183240131814

>  <distance_score>  (1172) 
0.4274494999045744

>  <path>  (1172) 
/opt/xchem-fragalysis-2/maxwin/BulkDock/SCRATCH/505735/C897-P162/C897-P162.minimised.mol

>  <scratch_subdir>  (1172) 
/opt/xchem-fragalysis-2/maxwin/BulkDock/SCRATCH/505735/C897-P162

>  <fragmenstein_runtime>  (1172) 
1.408639907836914

>  <fragmenstein_outcome>  (1172) 
acceptable

>  <fragmenstein_mode>  (1172) 
expansion

>  <fragmenstein_error>  (1172) 


$$$$
C897-P165
     RDKit          3D

 39 42  0  0  0  0  0  0  0  0999 V2000
    3.2148   -1.8347   29.9287 C   0  0  0  0  0  0  0  0  0  0  0  0
    2.0928   -1.9637   29.2106 C   0  0  0  0  0  0  0  0  0  0  0  0
    1.1290   -3.1018   29.3279 C   0  0  0  0  0  0  0  0  0  0  0  0
    0.0926   -2.8873   30.3190 N   0  0  0  0  0  0  0  0  0  0  0  0
   -0.0869   -3.5408   31.5071 C   0  0  0  0  0  0  0  0  0  0  0  0
    1.1908   -4.3718   32.3352 S   0  0  0  0  0  0  0  0  0  0  0  0
    0.2422   -5.5180   33.2242 C   0  0  0  0  0  0  0  0  0  0  0  0
    0.1544   -5.4188   34.5678 C   0  0  0  0  0  0  0  0  0  0  0  0
   -0.6028   -6.4062   35.3191 C   0  0  0  0  0  0  0  0  0  0  0  0
   -1.2456   -7.4114   34.7000 C   0  0  0  0  0  0  0  0  0  0  0  0
   -1.1846   -7.5184   33.2853 C   0  0  0  0  0  0  0  0  0  0  0  0
   -1.7318   -8.3634   32.4382 N   0  0  0  0  0  0  0  0  0  0  0  0
   -1.2839   -8.0628   31.1827 N   0  0  0  0  0  0  0  0  0  0  0  0
   -0.4706   -7.0407   31.2854 C   0  0  0  0  0  0  0  0  0  0  0  0
    0.2703   -6.5313   30.2705 N   0  0  0  0  0  0  0  0  0  0  0  0
   -0.4152   -6.5900   32.5938 N   0  0  0  0  0  0  0  0  0  0  0  0
   -1.3164   -3.3468   31.9273 N   0  0  0  0  0  0  0  0  0  0  0  0
   -1.8893   -2.4025   31.1017 N   0  0  0  0  0  0  0  0  0  0  0  0
   -0.9978   -2.0551   30.1893 C   0  0  0  0  0  0  0  0  0  0  0  0
   -1.0568   -0.9076   29.2987 C   0  0  0  0  0  0  0  0  0  0  0  0
   -0.4793    0.3064   29.6826 C   0  0  0  0  0  0  0  0  0  0  0  0
   -0.5199    1.4040   28.8236 C   0  0  0  0  0  0  0  0  0  0  0  0
   -1.1703    1.2673   27.6144 C   0  0  0  0  0  0  0  0  0  0  0  0
   -1.7168    0.1104   27.2047 N   0  0  0  0  0  0  0  0  0  0  0  0
   -1.6449   -0.9530   28.0476 C   0  0  0  0  0  0  0  0  0  0  0  0
    3.8731   -0.9832   29.7766 H   0  0  0  0  0  0  0  0  0  0  0  0
    3.5075   -2.5602   30.6814 H   0  0  0  0  0  0  0  0  0  0  0  0
    1.8621   -1.2068   28.4611 H   0  0  0  0  0  0  0  0  0  0  0  0
    0.6275   -3.2651   28.3682 H   0  0  0  0  0  0  0  0  0  0  0  0
    1.6547   -4.0352   29.5521 H   0  0  0  0  0  0  0  0  0  0  0  0
    0.6311   -4.6200   35.1282 H   0  0  0  0  0  0  0  0  0  0  0  0
   -0.6341   -6.3138   36.4010 H   0  0  0  0  0  0  0  0  0  0  0  0
   -1.7943   -8.1623   35.2584 H   0  0  0  0  0  0  0  0  0  0  0  0
   -0.3539   -6.1624   29.5481 H   0  0  0  0  0  0  0  0  0  0  0  0
    0.7048   -7.3223   29.7971 H   0  0  0  0  0  0  0  0  0  0  0  0
    0.0037    0.4039   30.6518 H   0  0  0  0  0  0  0  0  0  0  0  0
   -0.0809    2.3555   29.1040 H   0  0  0  0  0  0  0  0  0  0  0  0
   -1.2723    2.1032   26.9288 H   0  0  0  0  0  0  0  0  0  0  0  0
   -2.1095   -1.8560   27.6663 H   0  0  0  0  0  0  0  0  0  0  0  0
  1  2  2  0
  2  3  1  0
  3  4  1  0
  4  5  1  0
  5  6  1  0
  6  7  1  0
  7  8  2  0
  8  9  1  0
  9 10  2  0
 10 11  1  0
 11 12  2  0
 12 13  1  0
 13 14  2  0
 14 15  1  0
 14 16  1  0
  5 17  2  0
 17 18  1  0
 18 19  2  0
 19 20  1  0
 20 21  2  0
 21 22  1  0
 22 23  2  0
 23 24  1  0
 24 25  2  0
 19  4  1  0
 25 20  1  0
 16  7  1  0
 16 11  1  0
  1 26  1  0
  1 27  1  0
  2 28  1  0
  3 29  1  0
  3 30  1  0
  8 31  1  0
  9 32  1  0
 10 33  1  0
 15 34  1  0
 15 35  1  0
 21 36  1  0
 22 37  1  0
 23 38  1  0
 25 39  1  0
M  END
>  <Energy>  (1173) 
82.011910957012802

>  <compound_id>  (1173) 
897

>  <target_id>  (1173) 
1

>  <reference_id>  (1173) 
165

>  <inspiration_ids>  (1173) 
[162, 165]

>  <energy_score>  (1173) 
-49.39797097188139

>  <distance_score>  (1173) 
0.664162439763893

>  <path>  (1173) 
/opt/xchem-fragalysis-2/maxwin/BulkDock/SCRATCH/505735/C897-P165/C897-P165.minimised.mol

>  <scratch_subdir>  (1173) 
/opt/xchem-fragalysis-2/maxwin/BulkDock/SCRATCH/505735/C897-P165

>  <fragmenstein_runtime>  (1173) 
1.4189174175262451

>  <fragmenstein_outcome>  (1173) 
acceptable

>  <fragmenstein_mode>  (1173) 
expansion

>  <fragmenstein_error>  (1173) 


$$$$
C4555-P162
     RDKit          3D

 54 58  0  0  0  0  0  0  0  0999 V2000
    3.2972   -1.7613   30.0709 C   0  0  0  0  0  0  0  0  0  0  0  0
    2.0343   -1.4255   29.7856 C   0  0  0  0  0  0  0  0  0  0  0  0
    0.9304   -2.3836   29.4871 C   0  0  0  0  0  0  0  0  0  0  0  0
   -0.1827   -2.3049   30.4160 N   0  0  0  0  0  0  0  0  0  0  0  0
   -0.3820   -2.8876   31.6383 C   0  0  0  0  0  0  0  0  0  0  0  0
    0.8559   -3.4078   32.7483 S   0  0  0  0  0  0  0  0  0  0  0  0
    0.4245   -5.0806   32.6876 C   0  0  0  0  0  0  0  0  0  0  0  0
   -0.3198   -5.6934   33.6250 C   0  0  0  0  0  0  0  0  0  0  0  0
   -0.8135   -7.0365   33.3510 C   0  0  0  0  0  0  0  0  0  0  0  0
   -0.6487   -7.6105   32.1390 C   0  0  0  0  0  0  0  0  0  0  0  0
    0.1701   -6.9734   31.1493 C   0  0  0  0  0  0  0  0  0  0  0  0
    0.5659   -7.2932   29.9193 N   0  0  0  0  0  0  0  0  0  0  0  0
    1.5590   -6.3507   29.5436 C   0  0  0  0  0  0  0  0  0  0  0  0
    2.5238   -6.5473   28.3613 C   0  0  0  0  0  0  0  0  0  0  0  0
    3.1672   -5.3361   27.6904 C   0  0  0  0  0  0  0  0  0  0  0  0
    4.3433   -5.7565   26.7763 C   0  0  0  0  0  0  0  0  0  0  0  0
    5.4949   -6.3300   27.5421 C   0  0  0  0  0  0  0  0  0  0  0  0
    5.6110   -7.6989   27.6869 N   0  0  0  0  0  0  0  0  0  0  0  0
    6.7112   -7.8962   28.3780 C   0  0  0  0  0  0  0  0  0  0  0  0
    7.2859   -6.7141   28.7390 N   0  0  0  0  0  0  0  0  0  0  0  0
    6.5203   -5.7094   28.2197 C   0  0  0  0  0  0  0  0  0  0  0  0
    6.9166   -3.6966   28.4220 I   0  0  0  0  0  0  0  0  0  0  0  0
    1.7020   -5.4777   30.5854 C   0  0  0  0  0  0  0  0  0  0  0  0
    0.7504   -5.7779   31.5276 N   0  0  0  0  0  0  0  0  0  0  0  0
   -1.6724   -2.9271   31.8922 N   0  0  0  0  0  0  0  0  0  0  0  0
   -2.3085   -2.1786   30.9288 N   0  0  0  0  0  0  0  0  0  0  0  0
   -1.3886   -1.7116   30.1064 C   0  0  0  0  0  0  0  0  0  0  0  0
   -1.5346   -0.6709   29.1070 C   0  0  0  0  0  0  0  0  0  0  0  0
   -0.9574    0.5858   29.3185 C   0  0  0  0  0  0  0  0  0  0  0  0
   -1.0734    1.5778   28.3497 C   0  0  0  0  0  0  0  0  0  0  0  0
   -1.7988    1.2928   27.2112 C   0  0  0  0  0  0  0  0  0  0  0  0
   -2.3471    0.0884   26.9664 N   0  0  0  0  0  0  0  0  0  0  0  0
   -2.1975   -0.8739   27.9105 C   0  0  0  0  0  0  0  0  0  0  0  0
    4.0436   -0.9924   30.2553 H   0  0  0  0  0  0  0  0  0  0  0  0
    3.6336   -2.7900   30.1210 H   0  0  0  0  0  0  0  0  0  0  0  0
    1.7913   -0.3664   29.7318 H   0  0  0  0  0  0  0  0  0  0  0  0
    0.5542   -2.1784   28.4785 H   0  0  0  0  0  0  0  0  0  0  0  0
    1.2703   -3.4098   29.4455 H   0  0  0  0  0  0  0  0  0  0  0  0
   -0.6578   -5.1908   34.5269 H   0  0  0  0  0  0  0  0  0  0  0  0
   -1.3941   -7.5307   34.1261 H   0  0  0  0  0  0  0  0  0  0  0  0
   -1.0790   -8.5791   31.9143 H   0  0  0  0  0  0  0  0  0  0  0  0
    3.3844   -7.0656   28.7698 H   0  0  0  0  0  0  0  0  0  0  0  0
    2.1149   -7.2370   27.6219 H   0  0  0  0  0  0  0  0  0  0  0  0
    2.4201   -4.7986   27.1120 H   0  0  0  0  0  0  0  0  0  0  0  0
    3.5309   -4.6363   28.4505 H   0  0  0  0  0  0  0  0  0  0  0  0
    4.6811   -4.8837   26.2058 H   0  0  0  0  0  0  0  0  0  0  0  0
    3.9918   -6.4912   26.0418 H   0  0  0  0  0  0  0  0  0  0  0  0
    7.1287   -8.8580   28.6482 H   0  0  0  0  0  0  0  0  0  0  0  0
    8.1444   -6.6003   29.2584 H   0  0  0  0  0  0  0  0  0  0  0  0
    2.4417   -4.7121   30.7622 H   0  0  0  0  0  0  0  0  0  0  0  0
   -0.4280    0.8050   30.2421 H   0  0  0  0  0  0  0  0  0  0  0  0
   -0.6441    2.5635   28.4934 H   0  0  0  0  0  0  0  0  0  0  0  0
   -1.9675    2.0457   26.4471 H   0  0  0  0  0  0  0  0  0  0  0  0
   -2.6486   -1.8294   27.6599 H   0  0  0  0  0  0  0  0  0  0  0  0
  1  2  2  0
  2  3  1  0
  3  4  1  0
  4  5  1  0
  5  6  1  0
  6  7  1  0
  7  8  2  0
  8  9  1  0
  9 10  2  0
 10 11  1  0
 11 12  2  0
 12 13  1  0
 13 14  1  0
 14 15  1  0
 15 16  1  0
 16 17  1  0
 17 18  1  0
 18 19  2  0
 19 20  1  0
 20 21  1  0
 21 22  1  0
 13 23  2  0
 23 24  1  0
  5 25  2  0
 25 26  1  0
 26 27  2  0
 27 28  1  0
 28 29  2  0
 29 30  1  0
 30 31  2  0
 31 32  1  0
 32 33  2  0
 27  4  1  0
 33 28  1  0
 24  7  1  0
 24 11  1  0
 21 17  2  0
  1 34  1  0
  1 35  1  0
  2 36  1  0
  3 37  1  0
  3 38  1  0
  8 39  1  0
  9 40  1  0
 10 41  1  0
 14 42  1  0
 14 43  1  0
 15 44  1  0
 15 45  1  0
 16 46  1  0
 16 47  1  0
 19 48  1  0
 20 49  1  0
 23 50  1  0
 29 51  1  0
 30 52  1  0
 31 53  1  0
 33 54  1  0
M  END
>  <Energy>  (1174) 
88.881730394840446

>  <compound_id>  (1174) 
4555

>  <target_id>  (1174) 
1

>  <reference_id>  (1174) 
162

>  <inspiration_ids>  (1174) 
[162, 175]

>  <energy_score>  (1174) 
-19.917945849558294

>  <distance_score>  (1174) 
1.6516795174324514

>  <path>  (1174) 
/opt/xchem-fragalysis-2/maxwin/BulkDock/SCRATCH/505735/C4555-P162/C4555-P162.minimised.mol

>  <scratch_subdir>  (1174) 
/opt/xchem-fragalysis-2/maxwin/BulkDock/SCRATCH/505735/C4555-P162

>  <fragmenstein_runtime>  (1174) 
6.232547760009766

>  <fragmenstein_outcome>  (1174) 
too moved

>  <fragmenstein_mode>  (1174) 
expansion

>  <fragmenstein_error>  (1174) 


$$$$
C4555-P175
     RDKit          3D

 54 58  0  0  0  0  0  0  0  0999 V2000
    3.2252   -1.7134   30.0957 C   0  0  0  0  0  0  0  0  0  0  0  0
    1.9964   -1.4935   29.6145 C   0  0  0  0  0  0  0  0  0  0  0  0
    0.9129   -2.5149   29.5096 C   0  0  0  0  0  0  0  0  0  0  0  0
   -0.1749   -2.3247   30.4504 N   0  0  0  0  0  0  0  0  0  0  0  0
   -0.4139   -2.8880   31.6760 C   0  0  0  0  0  0  0  0  0  0  0  0
    0.7820   -3.4232   32.8207 S   0  0  0  0  0  0  0  0  0  0  0  0
    0.3461   -5.0950   32.7555 C   0  0  0  0  0  0  0  0  0  0  0  0
   -0.4802   -5.6918   33.6333 C   0  0  0  0  0  0  0  0  0  0  0  0
   -0.9057   -7.0599   33.3649 C   0  0  0  0  0  0  0  0  0  0  0  0
   -0.6047   -7.6756   32.2002 C   0  0  0  0  0  0  0  0  0  0  0  0
    0.2649   -7.0383   31.2579 C   0  0  0  0  0  0  0  0  0  0  0  0
    0.7425   -7.3618   30.0582 N   0  0  0  0  0  0  0  0  0  0  0  0
    1.7176   -6.3894   29.7304 C   0  0  0  0  0  0  0  0  0  0  0  0
    2.7388   -6.5460   28.6044 C   0  0  0  0  0  0  0  0  0  0  0  0
    3.1839   -5.3465   27.7650 C   0  0  0  0  0  0  0  0  0  0  0  0
    4.3579   -5.7330   26.8315 C   0  0  0  0  0  0  0  0  0  0  0  0
    5.5590   -6.2134   27.5831 C   0  0  0  0  0  0  0  0  0  0  0  0
    5.7609   -7.5680   27.7594 N   0  0  0  0  0  0  0  0  0  0  0  0
    6.8684   -7.6814   28.4567 C   0  0  0  0  0  0  0  0  0  0  0  0
    7.3733   -6.4581   28.7811 N   0  0  0  0  0  0  0  0  0  0  0  0
    6.5485   -5.5153   28.2372 C   0  0  0  0  0  0  0  0  0  0  0  0
    6.8206   -3.4778   28.3906 I   0  0  0  0  0  0  0  0  0  0  0  0
    1.8030   -5.5217   30.7820 C   0  0  0  0  0  0  0  0  0  0  0  0
    0.7860   -5.8196   31.6517 N   0  0  0  0  0  0  0  0  0  0  0  0
   -1.7032   -2.8429   31.9279 N   0  0  0  0  0  0  0  0  0  0  0  0
   -2.2823   -2.0505   30.9670 N   0  0  0  0  0  0  0  0  0  0  0  0
   -1.3353   -1.6494   30.1399 C   0  0  0  0  0  0  0  0  0  0  0  0
   -1.4124   -0.5869   29.1534 C   0  0  0  0  0  0  0  0  0  0  0  0
   -0.8376    0.6576   29.4274 C   0  0  0  0  0  0  0  0  0  0  0  0
   -0.9170    1.6848   28.4906 C   0  0  0  0  0  0  0  0  0  0  0  0
   -1.5994    1.4449   27.3152 C   0  0  0  0  0  0  0  0  0  0  0  0
   -2.1410    0.2530   27.0070 N   0  0  0  0  0  0  0  0  0  0  0  0
   -2.0274   -0.7423   27.9238 C   0  0  0  0  0  0  0  0  0  0  0  0
    3.9618   -0.9138   30.1104 H   0  0  0  0  0  0  0  0  0  0  0  0
    3.5398   -2.6765   30.4806 H   0  0  0  0  0  0  0  0  0  0  0  0
    1.7718   -0.5029   29.2240 H   0  0  0  0  0  0  0  0  0  0  0  0
    0.4946   -2.4911   28.4960 H   0  0  0  0  0  0  0  0  0  0  0  0
    1.2950   -3.5180   29.6248 H   0  0  0  0  0  0  0  0  0  0  0  0
   -0.9070   -5.1723   34.4865 H   0  0  0  0  0  0  0  0  0  0  0  0
   -1.5271   -7.5581   34.1052 H   0  0  0  0  0  0  0  0  0  0  0  0
   -0.9683   -8.6733   31.9828 H   0  0  0  0  0  0  0  0  0  0  0  0
    2.4575   -7.3691   27.9449 H   0  0  0  0  0  0  0  0  0  0  0  0
    3.6466   -6.8622   29.1216 H   0  0  0  0  0  0  0  0  0  0  0  0
    2.3570   -4.9581   27.1642 H   0  0  0  0  0  0  0  0  0  0  0  0
    3.4926   -4.5302   28.4281 H   0  0  0  0  0  0  0  0  0  0  0  0
    4.6271   -4.8672   26.2157 H   0  0  0  0  0  0  0  0  0  0  0  0
    4.0269   -6.5159   26.1379 H   0  0  0  0  0  0  0  0  0  0  0  0
    7.3414   -8.6090   28.7519 H   0  0  0  0  0  0  0  0  0  0  0  0
    8.2237   -6.2765   29.2943 H   0  0  0  0  0  0  0  0  0  0  0  0
    2.5193   -4.7419   30.9918 H   0  0  0  0  0  0  0  0  0  0  0  0
   -0.3418    0.8413   30.3774 H   0  0  0  0  0  0  0  0  0  0  0  0
   -0.4949    2.6643   28.6889 H   0  0  0  0  0  0  0  0  0  0  0  0
   -1.7364    2.2263   26.5735 H   0  0  0  0  0  0  0  0  0  0  0  0
   -2.4787   -1.6828   27.6241 H   0  0  0  0  0  0  0  0  0  0  0  0
  1  2  2  0
  2  3  1  0
  3  4  1  0
  4  5  1  0
  5  6  1  0
  6  7  1  0
  7  8  2  0
  8  9  1  0
  9 10  2  0
 10 11  1  0
 11 12  2  0
 12 13  1  0
 13 14  1  0
 14 15  1  0
 15 16  1  0
 16 17  1  0
 17 18  1  0
 18 19  2  0
 19 20  1  0
 20 21  1  0
 21 22  1  0
 13 23  2  0
 23 24  1  0
  5 25  2  0
 25 26  1  0
 26 27  2  0
 27 28  1  0
 28 29  2  0
 29 30  1  0
 30 31  2  0
 31 32  1  0
 32 33  2  0
 27  4  1  0
 33 28  1  0
 24  7  1  0
 24 11  1  0
 21 17  2  0
  1 34  1  0
  1 35  1  0
  2 36  1  0
  3 37  1  0
  3 38  1  0
  8 39  1  0
  9 40  1  0
 10 41  1  0
 14 42  1  0
 14 43  1  0
 15 44  1  0
 15 45  1  0
 16 46  1  0
 16 47  1  0
 19 48  1  0
 20 49  1  0
 23 50  1  0
 29 51  1  0
 30 52  1  0
 31 53  1  0
 33 54  1  0
M  END
>  <Energy>  (1175) 
88.599423476193309

>  <compound_id>  (1175) 
4555

>  <target_id>  (1175) 
1

>  <reference_id>  (1175) 
175

>  <inspiration_ids>  (1175) 
[162, 175]

>  <energy_score>  (1175) 
-20.200252768207008

>  <distance_score>  (1175) 
1.670822280032169

>  <path>  (1175) 
/opt/xchem-fragalysis-2/maxwin/BulkDock/SCRATCH/505735/C4555-P175/C4555-P175.minimised.mol

>  <scratch_subdir>  (1175) 
/opt/xchem-fragalysis-2/maxwin/BulkDock/SCRATCH/505735/C4555-P175

>  <fragmenstein_runtime>  (1175) 
5.771212816238403

>  <fragmenstein_outcome>  (1175) 
too moved

>  <fragmenstein_mode>  (1175) 
expansion

>  <fragmenstein_error>  (1175) 


$$$$
C4556-P162
     RDKit          3D

 58 62  0  0  0  0  0  0  0  0999 V2000
    3.5560    0.2460   31.8404 C   0  0  0  0  0  0  0  0  0  0  0  0
    3.3243   -0.9456   31.2776 C   0  0  0  0  0  0  0  0  0  0  0  0
    2.6618   -2.1075   31.9531 C   0  0  0  0  0  0  0  0  0  0  0  0
    1.3742   -2.4692   31.3816 N   0  0  0  0  0  0  0  0  0  0  0  0
    0.3341   -1.4788   31.6180 C   0  0  0  0  0  0  0  0  0  0  0  0
   -0.3262   -0.8994   30.3610 C   0  0  0  0  0  0  0  0  0  0  0  0
   -1.5951   -0.3252   30.5345 C   0  0  0  0  0  0  0  0  0  0  0  0
   -2.3425    0.2885   29.5954 N   0  0  0  0  0  0  0  0  0  0  0  0
   -1.8151    0.3652   28.3702 C   0  0  0  0  0  0  0  0  0  0  0  0
   -0.5534   -0.0958   28.0821 C   0  0  0  0  0  0  0  0  0  0  0  0
    0.2350   -0.7002   29.0827 C   0  0  0  0  0  0  0  0  0  0  0  0
    1.5695   -1.0102   28.6911 N   0  0  0  0  0  0  0  0  0  0  0  0
    1.8722   -2.3195   28.4701 N   0  0  0  0  0  0  0  0  0  0  0  0
    2.9767   -2.5832   27.9114 C   0  0  0  0  0  0  0  0  0  0  0  0
    3.2762   -4.0617   27.6990 C   0  0  0  0  0  0  0  0  0  0  0  0
    4.0445   -1.7113   27.4348 N   0  0  0  0  0  0  0  0  0  0  0  0
    4.1372   -0.2854   27.3639 C   0  0  0  0  0  0  0  0  0  0  0  0
   -0.6039   -2.2225   32.4884 N   0  0  0  0  0  0  0  0  0  0  0  0
   -0.5933   -3.5696   31.9668 N   0  0  0  0  0  0  0  0  0  0  0  0
    0.8454   -3.7950   31.7433 C   0  0  0  0  0  0  0  0  0  0  0  0
    1.0503   -4.6906   30.5101 C   0  0  0  0  0  0  0  0  0  0  0  0
    1.0117   -6.1856   30.7106 C   0  0  0  0  0  0  0  0  0  0  0  0
   -0.0974   -6.7470   31.5025 C   0  0  0  0  0  0  0  0  0  0  0  0
   -0.9747   -7.6374   31.0859 N   0  0  0  0  0  0  0  0  0  0  0  0
   -1.6043   -8.1543   32.1892 N   0  0  0  0  0  0  0  0  0  0  0  0
   -1.1171   -7.5540   33.2544 C   0  0  0  0  0  0  0  0  0  0  0  0
   -1.3344   -7.7361   34.6457 C   0  0  0  0  0  0  0  0  0  0  0  0
   -0.6816   -6.9609   35.5294 C   0  0  0  0  0  0  0  0  0  0  0  0
    0.2324   -5.9216   35.0899 C   0  0  0  0  0  0  0  0  0  0  0  0
    0.4637   -5.7460   33.7726 C   0  0  0  0  0  0  0  0  0  0  0  0
   -0.2047   -6.5834   32.8678 N   0  0  0  0  0  0  0  0  0  0  0  0
    1.6058   -4.5464   33.2711 S   0  0  0  0  0  0  0  0  0  0  0  0
    4.0539    1.0328   31.2829 H   0  0  0  0  0  0  0  0  0  0  0  0
    3.2509    0.4655   32.8584 H   0  0  0  0  0  0  0  0  0  0  0  0
    3.6631   -1.1200   30.2630 H   0  0  0  0  0  0  0  0  0  0  0  0
    3.3718   -2.9361   31.8299 H   0  0  0  0  0  0  0  0  0  0  0  0
    2.5818   -1.9059   33.0297 H   0  0  0  0  0  0  0  0  0  0  0  0
    0.6942   -0.6195   32.1978 H   0  0  0  0  0  0  0  0  0  0  0  0
   -2.0818   -0.2970   31.5040 H   0  0  0  0  0  0  0  0  0  0  0  0
   -2.4335    0.8347   27.6114 H   0  0  0  0  0  0  0  0  0  0  0  0
   -0.1793    0.0229   27.0760 H   0  0  0  0  0  0  0  0  0  0  0  0
    1.7990   -0.4428   27.8784 H   0  0  0  0  0  0  0  0  0  0  0  0
    3.9941   -4.3903   28.4559 H   0  0  0  0  0  0  0  0  0  0  0  0
    3.7073   -4.2200   26.7062 H   0  0  0  0  0  0  0  0  0  0  0  0
    2.3666   -4.6620   27.7805 H   0  0  0  0  0  0  0  0  0  0  0  0
    4.7440   -2.2763   26.9637 H   0  0  0  0  0  0  0  0  0  0  0  0
    3.4438    0.1130   26.6182 H   0  0  0  0  0  0  0  0  0  0  0  0
    3.9476    0.1862   28.3307 H   0  0  0  0  0  0  0  0  0  0  0  0
    5.1483   -0.0002   27.0571 H   0  0  0  0  0  0  0  0  0  0  0  0
   -1.5306   -1.8212   32.5651 H   0  0  0  0  0  0  0  0  0  0  0  0
   -1.0266   -3.5689   31.0369 H   0  0  0  0  0  0  0  0  0  0  0  0
    2.0459   -4.4849   30.0991 H   0  0  0  0  0  0  0  0  0  0  0  0
    0.3462   -4.4175   29.7113 H   0  0  0  0  0  0  0  0  0  0  0  0
    1.9408   -6.4723   31.2027 H   0  0  0  0  0  0  0  0  0  0  0  0
    1.0403   -6.6709   29.7318 H   0  0  0  0  0  0  0  0  0  0  0  0
   -2.0034   -8.5224   34.9743 H   0  0  0  0  0  0  0  0  0  0  0  0
   -0.8155   -7.1043   36.5976 H   0  0  0  0  0  0  0  0  0  0  0  0
    0.7108   -5.3163   35.8542 H   0  0  0  0  0  0  0  0  0  0  0  0
  1  2  2  0
  2  3  1  0
  3  4  1  0
  4  5  1  0
  5  6  1  0
  6  7  2  0
  7  8  1  0
  8  9  2  0
  9 10  1  0
 10 11  2  0
 11 12  1  0
 12 13  1  0
 13 14  2  3
 14 15  1  0
 14 16  1  0
 16 17  1  0
  5 18  1  0
 18 19  1  0
 19 20  1  0
 20 21  1  0
 21 22  1  0
 22 23  1  0
 23 24  2  0
 24 25  1  0
 25 26  2  0
 26 27  1  0
 27 28  2  0
 28 29  1  0
 29 30  2  0
 30 31  1  0
 30 32  1  0
 20  4  1  0
 31 23  1  0
 11  6  1  0
 32 20  1  0
 31 26  1  0
  1 33  1  0
  1 34  1  0
  2 35  1  0
  3 36  1  0
  3 37  1  0
  5 38  1  0
  7 39  1  0
  9 40  1  0
 10 41  1  0
 12 42  1  0
 15 43  1  0
 15 44  1  0
 15 45  1  0
 16 46  1  0
 17 47  1  0
 17 48  1  0
 17 49  1  0
 18 50  1  0
 19 51  1  0
 21 52  1  0
 21 53  1  0
 22 54  1  0
 22 55  1  0
 27 56  1  0
 28 57  1  0
 29 58  1  0
M  END
>  <Energy>  (1176) 
49.887197799342175

>  <compound_id>  (1176) 
4556

>  <target_id>  (1176) 
1

>  <reference_id>  (1176) 
162

>  <inspiration_ids>  (1176) 
[162, 177]

>  <energy_score>  (1176) 
-81.03402390463975

>  <distance_score>  (1176) 
2.8703197462346006

>  <path>  (1176) 
/opt/xchem-fragalysis-2/maxwin/BulkDock/SCRATCH/505735/C4556-P162/C4556-P162.minimised.mol

>  <scratch_subdir>  (1176) 
/opt/xchem-fragalysis-2/maxwin/BulkDock/SCRATCH/505735/C4556-P162

>  <fragmenstein_runtime>  (1176) 
16.09348487854004

>  <fragmenstein_outcome>  (1176) 
too moved

>  <fragmenstein_mode>  (1176) 
expansion

>  <fragmenstein_error>  (1176) 


$$$$
C4556-P177
     RDKit          3D

 58 62  0  0  0  0  0  0  0  0999 V2000
    3.5447   -1.2529   30.6459 C   0  0  0  0  0  0  0  0  0  0  0  0
    3.0972   -2.2420   29.8640 C   0  0  0  0  0  0  0  0  0  0  0  0
    1.9007   -3.1058   30.0926 C   0  0  0  0  0  0  0  0  0  0  0  0
    0.9526   -2.6802   31.0868 N   0  0  0  0  0  0  0  0  0  0  0  0
    0.1159   -1.5031   31.0552 C   0  0  0  0  0  0  0  0  0  0  0  0
   -0.5148   -0.8407   29.8613 C   0  0  0  0  0  0  0  0  0  0  0  0
   -0.9685    0.4496   30.1366 C   0  0  0  0  0  0  0  0  0  0  0  0
   -1.6317    1.2568   29.3034 N   0  0  0  0  0  0  0  0  0  0  0  0
   -1.8825    0.7673   28.0998 C   0  0  0  0  0  0  0  0  0  0  0  0
   -1.4991   -0.4828   27.6927 C   0  0  0  0  0  0  0  0  0  0  0  0
   -0.7641   -1.2827   28.5652 C   0  0  0  0  0  0  0  0  0  0  0  0
   -0.2693   -2.4882   28.0433 N   0  0  0  0  0  0  0  0  0  0  0  0
    0.7481   -2.5059   27.1204 N   0  0  0  0  0  0  0  0  0  0  0  0
    1.6863   -1.7436   26.9647 C   0  0  0  0  0  0  0  0  0  0  0  0
    1.8200   -0.3806   27.6934 C   0  0  0  0  0  0  0  0  0  0  0  0
    2.9607   -1.8617   26.0377 N   0  0  0  0  0  0  0  0  0  0  0  0
    3.4040   -2.9219   25.2104 C   0  0  0  0  0  0  0  0  0  0  0  0
   -1.0020   -1.7982   32.0020 N   0  0  0  0  0  0  0  0  0  0  0  0
   -0.5762   -2.9323   32.7542 N   0  0  0  0  0  0  0  0  0  0  0  0
    0.2761   -3.6947   31.8417 C   0  0  0  0  0  0  0  0  0  0  0  0
   -0.5981   -4.5238   30.8817 C   0  0  0  0  0  0  0  0  0  0  0  0
   -0.0401   -5.8874   30.5414 C   0  0  0  0  0  0  0  0  0  0  0  0
   -0.5028   -6.8123   31.5938 C   0  0  0  0  0  0  0  0  0  0  0  0
   -1.3786   -7.7736   31.4114 N   0  0  0  0  0  0  0  0  0  0  0  0
   -1.8029   -8.1725   32.6427 N   0  0  0  0  0  0  0  0  0  0  0  0
   -1.1670   -7.4783   33.5564 C   0  0  0  0  0  0  0  0  0  0  0  0
   -1.2298   -7.4700   34.9737 C   0  0  0  0  0  0  0  0  0  0  0  0
   -0.4407   -6.6460   35.6811 C   0  0  0  0  0  0  0  0  0  0  0  0
    0.4563   -5.7288   35.0134 C   0  0  0  0  0  0  0  0  0  0  0  0
    0.5067   -5.7164   33.6682 C   0  0  0  0  0  0  0  0  0  0  0  0
   -0.2919   -6.6100   32.9459 N   0  0  0  0  0  0  0  0  0  0  0  0
    1.5213   -4.5880   32.8771 S   0  0  0  0  0  0  0  0  0  0  0  0
    3.0568   -0.9854   31.5762 H   0  0  0  0  0  0  0  0  0  0  0  0
    4.4377   -0.6975   30.3761 H   0  0  0  0  0  0  0  0  0  0  0  0
    3.6680   -2.4789   28.9671 H   0  0  0  0  0  0  0  0  0  0  0  0
    1.4447   -3.4077   29.1634 H   0  0  0  0  0  0  0  0  0  0  0  0
    2.3716   -4.0471   30.4029 H   0  0  0  0  0  0  0  0  0  0  0  0
    0.7366   -0.7337   31.5365 H   0  0  0  0  0  0  0  0  0  0  0  0
   -0.7931    0.9023   31.1108 H   0  0  0  0  0  0  0  0  0  0  0  0
   -2.4898    1.4141   27.4851 H   0  0  0  0  0  0  0  0  0  0  0  0
   -1.7400   -0.8404   26.6987 H   0  0  0  0  0  0  0  0  0  0  0  0
   -1.0698   -3.0357   27.6918 H   0  0  0  0  0  0  0  0  0  0  0  0
    1.0873    0.3283   27.3150 H   0  0  0  0  0  0  0  0  0  0  0  0
    2.8041    0.0704   27.5376 H   0  0  0  0  0  0  0  0  0  0  0  0
    1.7028   -0.4681   28.7644 H   0  0  0  0  0  0  0  0  0  0  0  0
    3.5001   -1.0031   26.0950 H   0  0  0  0  0  0  0  0  0  0  0  0
    4.3846   -2.6827   24.7926 H   0  0  0  0  0  0  0  0  0  0  0  0
    2.6967   -3.0721   24.3928 H   0  0  0  0  0  0  0  0  0  0  0  0
    3.4879   -3.8482   25.7850 H   0  0  0  0  0  0  0  0  0  0  0  0
   -1.1184   -0.9856   32.6098 H   0  0  0  0  0  0  0  0  0  0  0  0
   -1.3469   -3.4944   33.1189 H   0  0  0  0  0  0  0  0  0  0  0  0
   -0.7903   -3.9887   29.9493 H   0  0  0  0  0  0  0  0  0  0  0  0
   -1.5949   -4.6297   31.3162 H   0  0  0  0  0  0  0  0  0  0  0  0
    1.0405   -5.8599   30.4388 H   0  0  0  0  0  0  0  0  0  0  0  0
   -0.4307   -6.2229   29.5736 H   0  0  0  0  0  0  0  0  0  0  0  0
   -1.8966   -8.1690   35.4577 H   0  0  0  0  0  0  0  0  0  0  0  0
   -0.4582   -6.6423   36.7672 H   0  0  0  0  0  0  0  0  0  0  0  0
    1.0438   -5.0532   35.6298 H   0  0  0  0  0  0  0  0  0  0  0  0
  1  2  2  0
  2  3  1  0
  3  4  1  0
  4  5  1  0
  5  6  1  0
  6  7  2  0
  7  8  1  0
  8  9  2  0
  9 10  1  0
 10 11  2  0
 11 12  1  0
 12 13  1  0
 13 14  2  3
 14 15  1  0
 14 16  1  0
 16 17  1  0
  5 18  1  0
 18 19  1  0
 19 20  1  0
 20 21  1  0
 21 22  1  0
 22 23  1  0
 23 24  2  0
 24 25  1  0
 25 26  2  0
 26 27  1  0
 27 28  2  0
 28 29  1  0
 29 30  2  0
 30 31  1  0
 30 32  1  0
 20  4  1  0
 31 23  1  0
 11  6  1  0
 32 20  1  0
 31 26  1  0
  1 33  1  0
  1 34  1  0
  2 35  1  0
  3 36  1  0
  3 37  1  0
  5 38  1  0
  7 39  1  0
  9 40  1  0
 10 41  1  0
 12 42  1  0
 15 43  1  0
 15 44  1  0
 15 45  1  0
 16 46  1  0
 17 47  1  0
 17 48  1  0
 17 49  1  0
 18 50  1  0
 19 51  1  0
 21 52  1  0
 21 53  1  0
 22 54  1  0
 22 55  1  0
 27 56  1  0
 28 57  1  0
 29 58  1  0
M  END
>  <Energy>  (1177) 
98.88101017380626

>  <compound_id>  (1177) 
4556

>  <target_id>  (1177) 
1

>  <reference_id>  (1177) 
177

>  <inspiration_ids>  (1177) 
[162, 177]

>  <energy_score>  (1177) 
-77.38319784187462

>  <distance_score>  (1177) 
2.508105492352969

>  <path>  (1177) 
/opt/xchem-fragalysis-2/maxwin/BulkDock/SCRATCH/505735/C4556-P177/C4556-P177.minimised.mol

>  <scratch_subdir>  (1177) 
/opt/xchem-fragalysis-2/maxwin/BulkDock/SCRATCH/505735/C4556-P177

>  <fragmenstein_runtime>  (1177) 
8.794630527496338

>  <fragmenstein_outcome>  (1177) 
too moved

>  <fragmenstein_mode>  (1177) 
expansion

>  <fragmenstein_error>  (1177) 


$$$$
C4558-P162
     RDKit          3D

 53 57  0  0  0  0  0  0  0  0999 V2000
    3.7106   -0.9750   30.5781 C   0  0  0  0  0  0  0  0  0  0  0  0
    3.0347   -1.4071   29.5080 C   0  0  0  0  0  0  0  0  0  0  0  0
    1.8267   -2.2855   29.5238 C   0  0  0  0  0  0  0  0  0  0  0  0
    1.1732   -2.3970   30.8154 N   0  0  0  0  0  0  0  0  0  0  0  0
    0.1955   -1.3380   31.2388 C   0  0  0  0  0  0  0  0  0  0  0  0
   -0.3758   -0.3716   30.1775 C   0  0  0  0  0  0  0  0  0  0  0  0
    0.4308    0.6454   29.6462 C   0  0  0  0  0  0  0  0  0  0  0  0
   -0.0211    1.4719   28.6125 C   0  0  0  0  0  0  0  0  0  0  0  0
   -1.2979    1.2840   28.1282 C   0  0  0  0  0  0  0  0  0  0  0  0
   -2.1343    0.3731   28.6436 N   0  0  0  0  0  0  0  0  0  0  0  0
   -1.6706   -0.3960   29.6618 C   0  0  0  0  0  0  0  0  0  0  0  0
   -0.7477   -2.0911   32.0908 N   0  0  0  0  0  0  0  0  0  0  0  0
   -2.0304   -1.4655   32.2934 O   0  0  0  0  0  0  0  0  0  0  0  0
   -2.2523   -1.3701   33.6957 C   0  0  0  0  0  0  0  0  0  0  0  0
   -0.7626   -3.4313   31.6072 N   0  0  0  0  0  0  0  0  0  0  0  0
   -1.7399   -3.6402   30.5764 O   0  0  0  0  0  0  0  0  0  0  0  0
   -1.3895   -3.3254   29.2407 C   0  0  0  0  0  0  0  0  0  0  0  0
    0.6293   -3.7107   31.2473 C   0  0  0  0  0  0  0  0  0  0  0  0
    0.9969   -4.9105   30.3443 C   0  0  0  0  0  0  0  0  0  0  0  0
    0.2842   -6.2323   30.4331 C   0  0  0  0  0  0  0  0  0  0  0  0
   -0.3122   -6.7832   31.6471 C   0  0  0  0  0  0  0  0  0  0  0  0
   -1.1031   -7.8384   31.5712 N   0  0  0  0  0  0  0  0  0  0  0  0
   -1.4551   -8.2053   32.8270 N   0  0  0  0  0  0  0  0  0  0  0  0
   -0.8812   -7.3709   33.6595 C   0  0  0  0  0  0  0  0  0  0  0  0
   -0.8701   -7.3420   35.0745 C   0  0  0  0  0  0  0  0  0  0  0  0
   -0.2097   -6.3575   35.7037 C   0  0  0  0  0  0  0  0  0  0  0  0
    0.5169   -5.3429   34.9589 C   0  0  0  0  0  0  0  0  0  0  0  0
    0.5504   -5.3681   33.6072 C   0  0  0  0  0  0  0  0  0  0  0  0
   -0.1583   -6.3980   32.9592 N   0  0  0  0  0  0  0  0  0  0  0  0
    1.5567   -4.1859   32.8172 S   0  0  0  0  0  0  0  0  0  0  0  0
    4.5866   -0.3438   30.4634 H   0  0  0  0  0  0  0  0  0  0  0  0
    3.4233   -1.2433   31.5905 H   0  0  0  0  0  0  0  0  0  0  0  0
    3.3918   -1.1165   28.5212 H   0  0  0  0  0  0  0  0  0  0  0  0
    2.2502   -3.2333   29.1837 H   0  0  0  0  0  0  0  0  0  0  0  0
    1.1699   -1.9590   28.7144 H   0  0  0  0  0  0  0  0  0  0  0  0
    0.7418   -0.6893   31.9369 H   0  0  0  0  0  0  0  0  0  0  0  0
    1.4380    0.7995   30.0258 H   0  0  0  0  0  0  0  0  0  0  0  0
    0.6168    2.2445   28.1977 H   0  0  0  0  0  0  0  0  0  0  0  0
   -1.7027    1.8917   27.3250 H   0  0  0  0  0  0  0  0  0  0  0  0
   -2.4309   -1.0692   30.0425 H   0  0  0  0  0  0  0  0  0  0  0  0
   -3.2516   -0.9562   33.8562 H   0  0  0  0  0  0  0  0  0  0  0  0
   -1.5192   -0.6966   34.1512 H   0  0  0  0  0  0  0  0  0  0  0  0
   -2.2036   -2.3553   34.1686 H   0  0  0  0  0  0  0  0  0  0  0  0
   -2.2575   -2.8476   28.7885 H   0  0  0  0  0  0  0  0  0  0  0  0
   -1.1229   -4.2350   28.7136 H   0  0  0  0  0  0  0  0  0  0  0  0
   -0.5801   -2.6416   29.1010 H   0  0  0  0  0  0  0  0  0  0  0  0
    0.8760   -4.6328   29.2915 H   0  0  0  0  0  0  0  0  0  0  0  0
    2.0776   -5.1149   30.4159 H   0  0  0  0  0  0  0  0  0  0  0  0
    0.9591   -6.9953   30.0317 H   0  0  0  0  0  0  0  0  0  0  0  0
   -0.5207   -6.1995   29.7078 H   0  0  0  0  0  0  0  0  0  0  0  0
   -1.3784   -8.1339   35.6162 H   0  0  0  0  0  0  0  0  0  0  0  0
   -0.1820   -6.3173   36.7888 H   0  0  0  0  0  0  0  0  0  0  0  0
    1.0475   -4.5934   35.5399 H   0  0  0  0  0  0  0  0  0  0  0  0
  1  2  2  0
  2  3  1  0
  3  4  1  0
  4  5  1  0
  5  6  1  0
  6  7  2  0
  7  8  1  0
  8  9  2  0
  9 10  1  0
 10 11  2  0
  5 12  1  0
 12 13  1  0
 13 14  1  0
 12 15  1  0
 15 16  1  0
 16 17  1  0
 15 18  1  0
 18 19  1  0
 19 20  1  0
 20 21  1  0
 21 22  2  0
 22 23  1  0
 23 24  2  0
 24 25  1  0
 25 26  2  0
 26 27  1  0
 27 28  2  0
 28 29  1  0
 28 30  1  0
 18  4  1  0
 29 21  1  0
 11  6  1  0
 30 18  1  0
 29 24  1  0
  1 31  1  0
  1 32  1  0
  2 33  1  0
  3 34  1  0
  3 35  1  0
  5 36  1  0
  7 37  1  0
  8 38  1  0
  9 39  1  0
 11 40  1  0
 14 41  1  0
 14 42  1  0
 14 43  1  0
 17 44  1  0
 17 45  1  0
 17 46  1  0
 19 47  1  0
 19 48  1  0
 20 49  1  0
 20 50  1  0
 25 51  1  0
 26 52  1  0
 27 53  1  0
M  END
>  <Energy>  (1178) 
102.679063935728

>  <compound_id>  (1178) 
4558

>  <target_id>  (1178) 
1

>  <reference_id>  (1178) 
162

>  <inspiration_ids>  (1178) 
[162, 183]

>  <energy_score>  (1178) 
-92.44295721546246

>  <distance_score>  (1178) 
1.1643968308018122

>  <path>  (1178) 
/opt/xchem-fragalysis-2/maxwin/BulkDock/SCRATCH/505735/C4558-P162/C4558-P162.minimised.mol

>  <scratch_subdir>  (1178) 
/opt/xchem-fragalysis-2/maxwin/BulkDock/SCRATCH/505735/C4558-P162

>  <fragmenstein_runtime>  (1178) 
2.093808889389038

>  <fragmenstein_outcome>  (1178) 
too moved

>  <fragmenstein_mode>  (1178) 
expansion

>  <fragmenstein_error>  (1178) 


$$$$
C4558-P183
     RDKit          3D

 53 57  0  0  0  0  0  0  0  0999 V2000
    3.3160   -1.4195   29.7491 C   0  0  0  0  0  0  0  0  0  0  0  0
    2.4268   -2.0473   28.9678 C   0  0  0  0  0  0  0  0  0  0  0  0
    1.2378   -2.8390   29.4330 C   0  0  0  0  0  0  0  0  0  0  0  0
    0.7235   -2.4391   30.7251 N   0  0  0  0  0  0  0  0  0  0  0  0
    0.1307   -1.1134   30.8321 C   0  0  0  0  0  0  0  0  0  0  0  0
   -0.4911   -0.4591   29.6146 C   0  0  0  0  0  0  0  0  0  0  0  0
   -0.0526    0.8144   29.2206 C   0  0  0  0  0  0  0  0  0  0  0  0
   -0.6568    1.4742   28.1574 C   0  0  0  0  0  0  0  0  0  0  0  0
   -1.6896    0.8356   27.5059 C   0  0  0  0  0  0  0  0  0  0  0  0
   -2.1445   -0.3847   27.8512 N   0  0  0  0  0  0  0  0  0  0  0  0
   -1.5478   -1.0028   28.8941 C   0  0  0  0  0  0  0  0  0  0  0  0
   -0.8640   -1.1843   31.8923 N   0  0  0  0  0  0  0  0  0  0  0  0
   -0.6168   -0.1888   32.9286 O   0  0  0  0  0  0  0  0  0  0  0  0
    0.2670   -0.6511   33.9467 C   0  0  0  0  0  0  0  0  0  0  0  0
   -1.0612   -2.5313   32.2998 N   0  0  0  0  0  0  0  0  0  0  0  0
   -2.4231   -2.9202   31.9296 O   0  0  0  0  0  0  0  0  0  0  0  0
   -3.3596   -2.1810   32.7207 C   0  0  0  0  0  0  0  0  0  0  0  0
   -0.0424   -3.3629   31.5594 C   0  0  0  0  0  0  0  0  0  0  0  0
   -0.6460   -4.5143   30.7498 C   0  0  0  0  0  0  0  0  0  0  0  0
    0.1355   -5.8129   30.5665 C   0  0  0  0  0  0  0  0  0  0  0  0
   -0.2686   -6.7504   31.6323 C   0  0  0  0  0  0  0  0  0  0  0  0
   -0.9031   -7.8888   31.4597 N   0  0  0  0  0  0  0  0  0  0  0  0
   -1.3095   -8.3227   32.6910 N   0  0  0  0  0  0  0  0  0  0  0  0
   -0.8978   -7.4579   33.5924 C   0  0  0  0  0  0  0  0  0  0  0  0
   -1.0170   -7.4080   35.0053 C   0  0  0  0  0  0  0  0  0  0  0  0
   -0.5194   -6.3531   35.6750 C   0  0  0  0  0  0  0  0  0  0  0  0
    0.1492   -5.2606   34.9843 C   0  0  0  0  0  0  0  0  0  0  0  0
    0.2827   -5.2964   33.6427 C   0  0  0  0  0  0  0  0  0  0  0  0
   -0.2313   -6.4168   32.9668 N   0  0  0  0  0  0  0  0  0  0  0  0
    1.1728   -4.0389   32.8329 S   0  0  0  0  0  0  0  0  0  0  0  0
    4.1434   -0.8683   29.3126 H   0  0  0  0  0  0  0  0  0  0  0  0
    3.2514   -1.4479   30.8323 H   0  0  0  0  0  0  0  0  0  0  0  0
    2.5622   -1.9947   27.8895 H   0  0  0  0  0  0  0  0  0  0  0  0
    1.6012   -3.8701   29.4578 H   0  0  0  0  0  0  0  0  0  0  0  0
    0.4678   -2.8152   28.6558 H   0  0  0  0  0  0  0  0  0  0  0  0
    0.9476   -0.4593   31.1637 H   0  0  0  0  0  0  0  0  0  0  0  0
    0.7558    1.3105   29.7526 H   0  0  0  0  0  0  0  0  0  0  0  0
   -0.3389    2.4651   27.8545 H   0  0  0  0  0  0  0  0  0  0  0  0
   -2.2042    1.3032   26.6726 H   0  0  0  0  0  0  0  0  0  0  0  0
   -1.9708   -1.9727   29.1378 H   0  0  0  0  0  0  0  0  0  0  0  0
    0.4615    0.1872   34.6220 H   0  0  0  0  0  0  0  0  0  0  0  0
    1.2250   -0.9698   33.5271 H   0  0  0  0  0  0  0  0  0  0  0  0
   -0.1939   -1.4505   34.5342 H   0  0  0  0  0  0  0  0  0  0  0  0
   -4.3297   -2.6821   32.6623 H   0  0  0  0  0  0  0  0  0  0  0  0
   -3.4847   -1.1732   32.3119 H   0  0  0  0  0  0  0  0  0  0  0  0
   -3.0484   -2.1250   33.7687 H   0  0  0  0  0  0  0  0  0  0  0  0
   -1.5563   -4.7996   31.2726 H   0  0  0  0  0  0  0  0  0  0  0  0
   -0.9659   -4.1406   29.7698 H   0  0  0  0  0  0  0  0  0  0  0  0
    1.2204   -5.6960   30.5184 H   0  0  0  0  0  0  0  0  0  0  0  0
   -0.1785   -6.2620   29.6284 H   0  0  0  0  0  0  0  0  0  0  0  0
   -1.4906   -8.2360   35.5228 H   0  0  0  0  0  0  0  0  0  0  0  0
   -0.5927   -6.3037   36.7579 H   0  0  0  0  0  0  0  0  0  0  0  0
    0.5374   -4.4464   35.5890 H   0  0  0  0  0  0  0  0  0  0  0  0
  1  2  2  0
  2  3  1  0
  3  4  1  0
  4  5  1  0
  5  6  1  0
  6  7  2  0
  7  8  1  0
  8  9  2  0
  9 10  1  0
 10 11  2  0
  5 12  1  0
 12 13  1  0
 13 14  1  0
 12 15  1  0
 15 16  1  0
 16 17  1  0
 15 18  1  0
 18 19  1  0
 19 20  1  0
 20 21  1  0
 21 22  2  0
 22 23  1  0
 23 24  2  0
 24 25  1  0
 25 26  2  0
 26 27  1  0
 27 28  2  0
 28 29  1  0
 28 30  1  0
 18  4  1  0
 29 21  1  0
 11  6  1  0
 30 18  1  0
 29 24  1  0
  1 31  1  0
  1 32  1  0
  2 33  1  0
  3 34  1  0
  3 35  1  0
  5 36  1  0
  7 37  1  0
  8 38  1  0
  9 39  1  0
 11 40  1  0
 14 41  1  0
 14 42  1  0
 14 43  1  0
 17 44  1  0
 17 45  1  0
 17 46  1  0
 19 47  1  0
 19 48  1  0
 20 49  1  0
 20 50  1  0
 25 51  1  0
 26 52  1  0
 27 53  1  0
M  END
>  <Energy>  (1179) 
72.577307458577707

>  <compound_id>  (1179) 
4558

>  <target_id>  (1179) 
1

>  <reference_id>  (1179) 
183

>  <inspiration_ids>  (1179) 
[162, 183]

>  <energy_score>  (1179) 
-122.54471369261427

>  <distance_score>  (1179) 
0.9973628086034866

>  <path>  (1179) 
/opt/xchem-fragalysis-2/maxwin/BulkDock/SCRATCH/505735/C4558-P183/C4558-P183.minimised.mol

>  <scratch_subdir>  (1179) 
/opt/xchem-fragalysis-2/maxwin/BulkDock/SCRATCH/505735/C4558-P183

>  <fragmenstein_runtime>  (1179) 
2.858476161956787

>  <fragmenstein_outcome>  (1179) 
acceptable

>  <fragmenstein_mode>  (1179) 
expansion

>  <fragmenstein_error>  (1179) 


$$$$
C4122-P162
     RDKit          3D

 49 53  0  0  0  0  0  0  0  0999 V2000
   -0.3028   -1.9112   32.1322 O   0  0  0  0  0  0  0  0  0  0  0  0
   -0.7891   -2.9699   31.2642 S   0  0  0  0  0  0  0  0  0  0  0  0
   -2.1329   -3.4715   31.4385 O   0  0  0  0  0  0  0  0  0  0  0  0
   -0.4212   -2.5833   29.5429 C   0  0  0  0  0  0  0  0  0  0  0  0
   -0.7942   -1.1831   29.1517 C   0  0  0  0  0  0  0  0  0  0  0  0
   -0.1903   -0.0559   29.7222 C   0  0  0  0  0  0  0  0  0  0  0  0
   -0.5058    1.2160   29.2722 C   0  0  0  0  0  0  0  0  0  0  0  0
   -1.4184    1.3704   28.2372 C   0  0  0  0  0  0  0  0  0  0  0  0
   -2.0153    0.2633   27.6519 C   0  0  0  0  0  0  0  0  0  0  0  0
   -1.7194   -1.0070   28.1148 C   0  0  0  0  0  0  0  0  0  0  0  0
    1.0641   -2.9891   29.3849 C   0  0  0  0  0  0  0  0  0  0  0  0
    1.6113   -3.6414   30.6964 C   0  0  0  0  0  0  0  0  0  0  0  0
    0.4277   -4.3839   31.3824 C   0  0  0  0  0  0  0  0  0  0  0  0
    0.0817   -5.6045   30.4651 C   0  0  0  0  0  0  0  0  0  0  0  0
   -0.4629   -6.9138   31.0664 C   0  0  0  0  0  0  0  0  0  0  0  0
   -0.8055   -6.7088   32.4983 C   0  0  0  0  0  0  0  0  0  0  0  0
   -1.2171   -7.8710   33.2310 N   0  0  0  0  0  0  0  0  0  0  0  0
   -0.8359   -7.5240   34.5746 N   0  0  0  0  0  0  0  0  0  0  0  0
    0.3434   -6.6573   34.4685 C   0  0  0  0  0  0  0  0  0  0  0  0
    0.2993   -5.4610   35.4213 C   0  0  0  0  0  0  0  0  0  0  0  0
    1.4359   -4.4698   35.1367 C   0  0  0  0  0  0  0  0  0  0  0  0
    1.6582   -4.2103   33.6504 C   0  0  0  0  0  0  0  0  0  0  0  0
    0.4849   -4.7722   32.8720 C   0  0  0  0  0  0  0  0  0  0  0  0
    0.4374   -6.2434   33.0772 N   0  0  0  0  0  0  0  0  0  0  0  0
   -1.0283   -3.2890   28.9659 H   0  0  0  0  0  0  0  0  0  0  0  0
    0.5471   -0.1561   30.5157 H   0  0  0  0  0  0  0  0  0  0  0  0
   -0.0283    2.0877   29.7111 H   0  0  0  0  0  0  0  0  0  0  0  0
   -1.6632    2.3656   27.8701 H   0  0  0  0  0  0  0  0  0  0  0  0
   -2.7009    0.3987   26.8209 H   0  0  0  0  0  0  0  0  0  0  0  0
   -2.1912   -1.8569   27.6259 H   0  0  0  0  0  0  0  0  0  0  0  0
    1.7016   -2.1415   29.1085 H   0  0  0  0  0  0  0  0  0  0  0  0
    1.1504   -3.7072   28.5601 H   0  0  0  0  0  0  0  0  0  0  0  0
    2.0039   -2.8369   31.3284 H   0  0  0  0  0  0  0  0  0  0  0  0
    2.4547   -4.3069   30.4818 H   0  0  0  0  0  0  0  0  0  0  0  0
    1.0051   -5.9114   29.9514 H   0  0  0  0  0  0  0  0  0  0  0  0
   -0.5614   -5.2795   29.6520 H   0  0  0  0  0  0  0  0  0  0  0  0
    0.3088   -7.6841   30.9534 H   0  0  0  0  0  0  0  0  0  0  0  0
   -1.3084   -7.3093   30.4994 H   0  0  0  0  0  0  0  0  0  0  0  0
   -1.5820   -5.9610   32.6065 H   0  0  0  0  0  0  0  0  0  0  0  0
   -0.7328   -8.6963   32.8912 H   0  0  0  0  0  0  0  0  0  0  0  0
   -0.6643   -8.3435   35.1713 H   0  0  0  0  0  0  0  0  0  0  0  0
    1.2356   -7.2558   34.6934 H   0  0  0  0  0  0  0  0  0  0  0  0
   -0.6671   -4.9437   35.3650 H   0  0  0  0  0  0  0  0  0  0  0  0
    0.3817   -5.8107   36.4583 H   0  0  0  0  0  0  0  0  0  0  0  0
    1.2178   -3.5269   35.6527 H   0  0  0  0  0  0  0  0  0  0  0  0
    2.3686   -4.8461   35.5749 H   0  0  0  0  0  0  0  0  0  0  0  0
    2.5985   -4.6727   33.3244 H   0  0  0  0  0  0  0  0  0  0  0  0
    1.7672   -3.1310   33.5027 H   0  0  0  0  0  0  0  0  0  0  0  0
   -0.4147   -4.3422   33.3345 H   0  0  0  0  0  0  0  0  0  0  0  0
  1  2  2  0
  2  3  2  0
  2  4  1  0
  4  5  1  0
  5  6  2  0
  6  7  1  0
  7  8  2  0
  8  9  1  0
  9 10  2  0
  4 11  1  0
 11 12  1  0
 12 13  1  0
 13 14  1  0
 14 15  1  0
 15 16  1  0
 16 17  1  0
 17 18  1  0
 18 19  1  0
 19 20  1  0
 20 21  1  0
 21 22  1  0
 22 23  1  0
 23 24  1  0
 13  2  1  0
 24 16  1  0
 10  5  1  0
 23 13  1  0
 24 19  1  0
  4 25  1  0
  6 26  1  0
  7 27  1  0
  8 28  1  0
  9 29  1  0
 10 30  1  0
 11 31  1  0
 11 32  1  0
 12 33  1  0
 12 34  1  0
 14 35  1  0
 14 36  1  0
 15 37  1  0
 15 38  1  0
 16 39  1  0
 17 40  1  0
 18 41  1  0
 19 42  1  0
 20 43  1  0
 20 44  1  0
 21 45  1  0
 21 46  1  0
 22 47  1  0
 22 48  1  0
 23 49  1  0
M  END
>  <Energy>  (1180) 
91.719351665434573

>  <compound_id>  (1180) 
4122

>  <target_id>  (1180) 
1

>  <reference_id>  (1180) 
162

>  <inspiration_ids>  (1180) 
[162, 188]

>  <energy_score>  (1180) 
-41.64808422075117

>  <distance_score>  (1180) 
3.51279618278967

>  <path>  (1180) 
/opt/xchem-fragalysis-2/maxwin/BulkDock/SCRATCH/505735/C4122-P162/C4122-P162.minimised.mol

>  <scratch_subdir>  (1180) 
/opt/xchem-fragalysis-2/maxwin/BulkDock/SCRATCH/505735/C4122-P162

>  <fragmenstein_runtime>  (1180) 
7.347177982330322

>  <fragmenstein_outcome>  (1180) 
too moved

>  <fragmenstein_mode>  (1180) 
expansion

>  <fragmenstein_error>  (1180) 


$$$$
C4122-P188
     RDKit          3D

 49 53  0  0  0  0  0  0  0  0999 V2000
    0.0510   -1.8927   33.3942 O   0  0  0  0  0  0  0  0  0  0  0  0
   -0.4593   -2.3071   32.0981 S   0  0  0  0  0  0  0  0  0  0  0  0
   -1.8855   -2.2347   31.8588 O   0  0  0  0  0  0  0  0  0  0  0  0
    0.4517   -1.3581   30.8758 C   0  0  0  0  0  0  0  0  0  0  0  0
   -0.3907   -0.7567   29.7892 C   0  0  0  0  0  0  0  0  0  0  0  0
   -0.3981    0.6449   29.6575 C   0  0  0  0  0  0  0  0  0  0  0  0
   -1.0539    1.2542   28.6018 C   0  0  0  0  0  0  0  0  0  0  0  0
   -1.6992    0.4660   27.6662 C   0  0  0  0  0  0  0  0  0  0  0  0
   -1.7263   -0.9162   27.8089 C   0  0  0  0  0  0  0  0  0  0  0  0
   -1.0810   -1.5321   28.8614 C   0  0  0  0  0  0  0  0  0  0  0  0
    1.5845   -2.2828   30.4223 C   0  0  0  0  0  0  0  0  0  0  0  0
    1.1397   -3.7391   30.4433 C   0  0  0  0  0  0  0  0  0  0  0  0
    0.2219   -4.0223   31.6651 C   0  0  0  0  0  0  0  0  0  0  0  0
   -0.8860   -4.9387   31.1681 C   0  0  0  0  0  0  0  0  0  0  0  0
   -1.3572   -5.9674   32.1610 C   0  0  0  0  0  0  0  0  0  0  0  0
   -0.2522   -6.8713   32.5957 C   0  0  0  0  0  0  0  0  0  0  0  0
   -0.8055   -7.5607   33.7426 N   0  0  0  0  0  0  0  0  0  0  0  0
   -0.0773   -7.0901   34.8564 N   0  0  0  0  0  0  0  0  0  0  0  0
    1.1828   -6.5754   34.3503 C   0  0  0  0  0  0  0  0  0  0  0  0
    1.7214   -5.4740   35.2690 C   0  0  0  0  0  0  0  0  0  0  0  0
    2.7529   -4.6190   34.5512 C   0  0  0  0  0  0  0  0  0  0  0  0
    2.2226   -4.0919   33.2324 C   0  0  0  0  0  0  0  0  0  0  0  0
    0.8227   -4.6432   32.9392 C   0  0  0  0  0  0  0  0  0  0  0  0
    0.9459   -6.1345   32.9755 N   0  0  0  0  0  0  0  0  0  0  0  0
    0.9141   -0.5401   31.4447 H   0  0  0  0  0  0  0  0  0  0  0  0
    0.1328    1.2750   30.3678 H   0  0  0  0  0  0  0  0  0  0  0  0
   -1.0633    2.3358   28.4957 H   0  0  0  0  0  0  0  0  0  0  0  0
   -2.2229    0.9285   26.8324 H   0  0  0  0  0  0  0  0  0  0  0  0
   -2.2651   -1.5222   27.0882 H   0  0  0  0  0  0  0  0  0  0  0  0
   -1.1337   -2.6134   28.9216 H   0  0  0  0  0  0  0  0  0  0  0  0
    1.9714   -2.0048   29.4350 H   0  0  0  0  0  0  0  0  0  0  0  0
    2.4260   -2.1709   31.1166 H   0  0  0  0  0  0  0  0  0  0  0  0
    0.6054   -3.9164   29.5019 H   0  0  0  0  0  0  0  0  0  0  0  0
    1.9974   -4.4196   30.4152 H   0  0  0  0  0  0  0  0  0  0  0  0
   -1.7162   -4.3227   30.8340 H   0  0  0  0  0  0  0  0  0  0  0  0
   -0.5386   -5.5035   30.2918 H   0  0  0  0  0  0  0  0  0  0  0  0
   -2.0934   -6.6199   31.6910 H   0  0  0  0  0  0  0  0  0  0  0  0
   -1.8046   -5.4489   33.0138 H   0  0  0  0  0  0  0  0  0  0  0  0
   -0.0021   -7.5844   31.8024 H   0  0  0  0  0  0  0  0  0  0  0  0
   -0.8262   -8.5782   33.6481 H   0  0  0  0  0  0  0  0  0  0  0  0
    0.0468   -7.7881   35.5959 H   0  0  0  0  0  0  0  0  0  0  0  0
    1.9155   -7.3882   34.3260 H   0  0  0  0  0  0  0  0  0  0  0  0
    0.9174   -4.8331   35.6558 H   0  0  0  0  0  0  0  0  0  0  0  0
    2.1803   -5.9310   36.1553 H   0  0  0  0  0  0  0  0  0  0  0  0
    3.0601   -3.7880   35.1968 H   0  0  0  0  0  0  0  0  0  0  0  0
    3.6565   -5.2146   34.3691 H   0  0  0  0  0  0  0  0  0  0  0  0
    2.9318   -4.3678   32.4425 H   0  0  0  0  0  0  0  0  0  0  0  0
    2.2284   -2.9995   33.2741 H   0  0  0  0  0  0  0  0  0  0  0  0
    0.1412   -4.3465   33.7488 H   0  0  0  0  0  0  0  0  0  0  0  0
  1  2  2  0
  2  3  2  0
  2  4  1  0
  4  5  1  0
  5  6  2  0
  6  7  1  0
  7  8  2  0
  8  9  1  0
  9 10  2  0
  4 11  1  0
 11 12  1  0
 12 13  1  0
 13 14  1  0
 14 15  1  0
 15 16  1  0
 16 17  1  0
 17 18  1  0
 18 19  1  0
 19 20  1  0
 20 21  1  0
 21 22  1  0
 22 23  1  0
 23 24  1  0
 13  2  1  0
 24 16  1  0
 10  5  1  0
 23 13  1  0
 24 19  1  0
  4 25  1  0
  6 26  1  0
  7 27  1  0
  8 28  1  0
  9 29  1  0
 10 30  1  0
 11 31  1  0
 11 32  1  0
 12 33  1  0
 12 34  1  0
 14 35  1  0
 14 36  1  0
 15 37  1  0
 15 38  1  0
 16 39  1  0
 17 40  1  0
 18 41  1  0
 19 42  1  0
 20 43  1  0
 20 44  1  0
 21 45  1  0
 21 46  1  0
 22 47  1  0
 22 48  1  0
 23 49  1  0
M  END
>  <Energy>  (1181) 
86.471614561153331

>  <compound_id>  (1181) 
4122

>  <target_id>  (1181) 
1

>  <reference_id>  (1181) 
188

>  <inspiration_ids>  (1181) 
[162, 188]

>  <energy_score>  (1181) 
-46.89582132503088

>  <distance_score>  (1181) 
3.577520088329058

>  <path>  (1181) 
/opt/xchem-fragalysis-2/maxwin/BulkDock/SCRATCH/505735/C4122-P188/C4122-P188.minimised.mol

>  <scratch_subdir>  (1181) 
/opt/xchem-fragalysis-2/maxwin/BulkDock/SCRATCH/505735/C4122-P188

>  <fragmenstein_runtime>  (1181) 
6.474064588546753

>  <fragmenstein_outcome>  (1181) 
too moved

>  <fragmenstein_mode>  (1181) 
expansion

>  <fragmenstein_error>  (1181) 


$$$$
